/*---------------------------------------------------------------------------*\
| =========                 |                                                 |
| \\      /  F ield         | OpenFOAM: The Open Source CFD Toolbox           |
|  \\    /   O peration     | Version:  2512                                  |
|   \\  /    A nd           | Website:  www.openfoam.com                      |
|    \\/     M anipulation  |                                                 |
\*---------------------------------------------------------------------------*/
Build  : _87ed40d256-20251219 OPENFOAM=2512 version=v2512
Arch   : "LSB;label=32;scalar=64"
Exec   : atomizationFoam -parallel
Date   : Jun 27 2026
Time   : 01:41:36
Host   : Venit2007
PID    : 19623
I/O    : uncollated
Case   : /home/venit2007/job1951305/run
nProcs : 16
Hosts  :
(
    (Venit2007 16)
)
Pstream initialized with:
    node communication : off [type=host] (16 ranks, 1 nodes)
    topology controls  : none
    consensus exchange : 0 (tuning: 0)
    exchange algorithm : 0
    commsType          : nonBlocking
    polling iterations : 0
trapFpe: Floating point exception trapping enabled (FOAM_SIGFPE).
memory pool : not available
fileModificationChecking : Monitoring run-time modified files using timeStampMaster (fileModificationSkew 5, maxFileModificationPolls 20)
allowSystemOperations : Allowing user-supplied system call operations

// * * * * * * * * * * * * * * * * * * * * * * * * * * * * * * * * * * * * * //
Create time

profiling initialized
Create mesh for time = 7.4058437e-05

Selecting dynamicFvMesh staticFvMesh

PIMPLE: Operating solver in PISO mode

Reading field p_rgh

Reading field U

Reading/calculating face flux field phi

Reading transportProperties

Selecting incompressible transport model Newtonian
Selecting incompressible transport model Newtonian
Reading field K

Reading KProperties

Selecting turbulence model type laminar
Selecting laminar stress model Stokes

Reading g

Reading hRef
Calculating field g.h

No MRF models present

Creating finite-volume options from "constant/fvOptions"

Selecting finite volume options type limitVelocity
    Source: velocityLimiter
    State: active
    - selecting all cells
    - selected 2813191 cell(s) with volume 1.5797499e-08
Selecting reconstructionScheme: isoAlpha

Cloud<droplet> faceZones
    fz1 faces: 0

DICPCG:  Solving for pcorr, Initial residual = 0.99999996, Final residual = 9.9262597e-07, No Iterations 589
DICPCG:  Solving for pcorr, Initial residual = 0.066076011, Final residual = 9.6592383e-07, No Iterations 450
time step continuity errors : sum local = 7.7815206e-20, global = -5.4570909e-22, cumulative = -2.5143392e-08
Courant Number mean: 1.359329e-05 max: 10.458089

Starting time loop

Courant Number mean: 1.359329e-05 max: 10.458089
Interface Courant Number mean: 1.1585843e-06 max: 1.4183491
deltaT = 1.7067759e-09
Time = 7.4060144e-05

PIMPLE: iteration 1

Droplet cloud: 
    Number of droplets : 0

isoAdvection: After conservative bounding: min(alpha) = -0.0043794318, max(alpha) = 1 + 5.5571953e-05
Phase-1 volume fraction = 0.00041024275  Min(alpha.liquid) = 0  Max(alpha.liquid) = 1
DILUPBiCGStab:  Solving for K, Initial residual = 0.027431872, Final residual = 5.1346133e-05, No Iterations 2
GAMG:  Solving for p_rgh, Initial residual = 0.12471985, Final residual = 0.0077852233, No Iterations 5
GAMG:  Solving for p_rgh, Initial residual = 0.025865398, Final residual = 0.0017502792, No Iterations 2
limitVelocity velocityLimiter Limited 855 (0.03%) of cells, 216 (0.07%) of faces, with max limit 60
time step continuity errors : sum local = 1.0751274e-09, global = -3.9198353e-11, cumulative = -2.518259e-08
GAMG:  Solving for p_rgh, Initial residual = 0.0062158864, Final residual = 0.00058880634, No Iterations 3
GAMG:  Solving for p_rgh, Initial residual = 0.0010688651, Final residual = 8.0024029e-08, No Iterations 16
limitVelocity velocityLimiter Limited 862 (0.03%) of cells, 216 (0.07%) of faces, with max limit 60
time step continuity errors : sum local = 5.0168387e-14, global = 7.7735052e-16, cumulative = -2.518259e-08
ExecutionTime = 43.2 s  ClockTime = 44 s

Courant Number mean: 1.7666029e-05 max: 2.361409
Interface Courant Number mean: 1.5324841e-06 max: 0.27222957
deltaT = 2.048166e-09
Time = 7.4062192e-05

PIMPLE: iteration 1

Droplet cloud: 
    Number of droplets : 0

isoAdvection: After conservative bounding: min(alpha) = -0.0058050528, max(alpha) = 1 + 9.4577056e-05
Phase-1 volume fraction = 0.00041025472  Min(alpha.liquid) = 0  Max(alpha.liquid) = 1
DILUPBiCGStab:  Solving for K, Initial residual = 0.025148731, Final residual = 0.0001805343, No Iterations 4
GAMG:  Solving for p_rgh, Initial residual = 0.18174079, Final residual = 0.013381701, No Iterations 4
GAMG:  Solving for p_rgh, Initial residual = 0.20006517, Final residual = 0.016541692, No Iterations 2
limitVelocity velocityLimiter Limited 382 (0.01%) of cells, 101 (0.03%) of faces, with max limit 60
time step continuity errors : sum local = 3.6218351e-09, global = -3.4007115e-11, cumulative = -2.5216597e-08
GAMG:  Solving for p_rgh, Initial residual = 0.040776827, Final residual = 0.0027090796, No Iterations 4
GAMG:  Solving for p_rgh, Initial residual = 0.0070184499, Final residual = 9.4334718e-08, No Iterations 19
limitVelocity velocityLimiter Limited 380 (0.01%) of cells, 99 (0.03%) of faces, with max limit 60
time step continuity errors : sum local = 1.4643216e-14, global = 2.9194444e-16, cumulative = -2.5216596e-08
ExecutionTime = 52.09 s  ClockTime = 53 s

Courant Number mean: 2.1442128e-05 max: 0.80443475
Interface Courant Number mean: 1.8374986e-06 max: 0.80443475
deltaT = 2.4577489e-09
Time = 7.406465e-05

PIMPLE: iteration 1

Droplet cloud: 
    Number of droplets : 0

isoAdvection: After conservative bounding: min(alpha) = -0.008615745, max(alpha) = 1 + 0.0002856601
Phase-1 volume fraction = 0.00041027092  Min(alpha.liquid) = 0  Max(alpha.liquid) = 1
DILUPBiCGStab:  Solving for K, Initial residual = 0.023327959, Final residual = 0.00023300117, No Iterations 4
GAMG:  Solving for p_rgh, Initial residual = 0.12759909, Final residual = 0.01098235, No Iterations 4
GAMG:  Solving for p_rgh, Initial residual = 0.073393241, Final residual = 0.0044533769, No Iterations 3
limitVelocity velocityLimiter Limited 379 (0.01%) of cells, 102 (0.03%) of faces, with max limit 60
time step continuity errors : sum local = 3.8460068e-10, global = 1.6127693e-11, cumulative = -2.5200469e-08
GAMG:  Solving for p_rgh, Initial residual = 0.015338931, Final residual = 0.00084070172, No Iterations 4
GAMG:  Solving for p_rgh, Initial residual = 0.0023847391, Final residual = 7.2455806e-08, No Iterations 17
limitVelocity velocityLimiter Limited 376 (0.01%) of cells, 101 (0.03%) of faces, with max limit 60
time step continuity errors : sum local = 5.4857997e-15, global = 1.1738294e-16, cumulative = -2.5200469e-08
ExecutionTime = 60.67 s  ClockTime = 62 s

Courant Number mean: 2.5712134e-05 max: 0.86585082
Interface Courant Number mean: 2.2045745e-06 max: 0.54277752
deltaT = 2.9493712e-09
Time = 7.4067599e-05

PIMPLE: iteration 1

Droplet cloud: 
    Number of droplets : 0

isoAdvection: After conservative bounding: min(alpha) = -0.011016823, max(alpha) = 1 + 0.00013637545
Phase-1 volume fraction = 0.00041029057  Min(alpha.liquid) = 0  Max(alpha.liquid) = 1
DILUPBiCGStab:  Solving for K, Initial residual = 0.027233709, Final residual = 0.00025461659, No Iterations 4
GAMG:  Solving for p_rgh, Initial residual = 0.18327628, Final residual = 0.012705349, No Iterations 1
GAMG:  Solving for p_rgh, Initial residual = 0.01853007, Final residual = 0.00098753656, No Iterations 6
limitVelocity velocityLimiter Limited 373 (0.01%) of cells, 106 (0.03%) of faces, with max limit 60
time step continuity errors : sum local = 7.6914737e-11, global = 2.6371749e-12, cumulative = -2.5197831e-08
GAMG:  Solving for p_rgh, Initial residual = 0.013270627, Final residual = 0.0011842313, No Iterations 3
GAMG:  Solving for p_rgh, Initial residual = 0.0023855551, Final residual = 8.9079269e-08, No Iterations 15
limitVelocity velocityLimiter Limited 374 (0.01%) of cells, 105 (0.03%) of faces, with max limit 60
time step continuity errors : sum local = 8.7843113e-15, global = 2.0959579e-16, cumulative = -2.5197831e-08
ExecutionTime = 68.87 s  ClockTime = 70 s

Courant Number mean: 3.0744726e-05 max: 1.1901761
Interface Courant Number mean: 2.6466004e-06 max: 0.52722249
deltaT = 3.5394543e-09
Time = 7.4071139e-05

PIMPLE: iteration 1

Droplet cloud: 
    Number of droplets : 0

isoAdvection: After conservative bounding: min(alpha) = -0.013645376, max(alpha) = 1 + 0.00016384128
Phase-1 volume fraction = 0.00041031391  Min(alpha.liquid) = 0  Max(alpha.liquid) = 1
DILUPBiCGStab:  Solving for K, Initial residual = 0.034544304, Final residual = 0.00031069515, No Iterations 4
GAMG:  Solving for p_rgh, Initial residual = 0.11830209, Final residual = 0.0047898898, No Iterations 1
GAMG:  Solving for p_rgh, Initial residual = 0.0064980277, Final residual = 0.0004851048, No Iterations 5
limitVelocity velocityLimiter Limited 386 (0.01%) of cells, 104 (0.03%) of faces, with max limit 60
time step continuity errors : sum local = 5.8373333e-11, global = 2.5165476e-12, cumulative = -2.5195315e-08
GAMG:  Solving for p_rgh, Initial residual = 0.0057060303, Final residual = 0.00053255471, No Iterations 4
GAMG:  Solving for p_rgh, Initial residual = 0.0014865515, Final residual = 9.2123826e-08, No Iterations 14
limitVelocity velocityLimiter Limited 385 (0.01%) of cells, 104 (0.03%) of faces, with max limit 60
time step continuity errors : sum local = 1.1689329e-14, global = -2.0546769e-16, cumulative = -2.5195315e-08
ExecutionTime = 77.03 s  ClockTime = 78 s

Courant Number mean: 3.672766e-05 max: 1.6129802
Interface Courant Number mean: 3.1731955e-06 max: 0.63820316
deltaT = 4.2471947e-09
Time = 7.4075386e-05

PIMPLE: iteration 1

Droplet cloud: 
    Number of droplets : 0

isoAdvection: After conservative bounding: min(alpha) = -0.017010447, max(alpha) = 1 + 0.0018985803
Phase-1 volume fraction = 0.00041034142  Min(alpha.liquid) = 0  Max(alpha.liquid) = 1
DILUPBiCGStab:  Solving for K, Initial residual = 0.044507583, Final residual = 0.00022155903, No Iterations 2
GAMG:  Solving for p_rgh, Initial residual = 0.091893012, Final residual = 0.0050349407, No Iterations 1
GAMG:  Solving for p_rgh, Initial residual = 0.0064071894, Final residual = 0.00044368943, No Iterations 5
limitVelocity velocityLimiter Limited 405 (0.01%) of cells, 117 (0.04%) of faces, with max limit 60
time step continuity errors : sum local = 7.1439639e-11, global = -1.2259533e-12, cumulative = -2.5196541e-08
GAMG:  Solving for p_rgh, Initial residual = 0.0082525717, Final residual = 0.00049676949, No Iterations 4
GAMG:  Solving for p_rgh, Initial residual = 0.0014512566, Final residual = 9.5397713e-08, No Iterations 13
limitVelocity velocityLimiter Limited 403 (0.01%) of cells, 115 (0.04%) of faces, with max limit 60
time step continuity errors : sum local = 1.4699615e-14, global = 3.2985466e-16, cumulative = -2.519654e-08
ExecutionTime = 84.8 s  ClockTime = 86 s

Courant Number mean: 4.3873847e-05 max: 2.1278955
Interface Courant Number mean: 3.8035871e-06 max: 0.85436093
deltaT = 5.0964171e-09
Time = 7.4080482e-05

PIMPLE: iteration 1

Droplet cloud: 
    Number of droplets : 0

isoAdvection: After conservative bounding: min(alpha) = -0.020959385, max(alpha) = 1 + 0.00023656156
Phase-1 volume fraction = 0.00041037376  Min(alpha.liquid) = 0  Max(alpha.liquid) = 1
DILUPBiCGStab:  Solving for K, Initial residual = 0.05695044, Final residual = 0.00019354546, No Iterations 2
GAMG:  Solving for p_rgh, Initial residual = 0.08027961, Final residual = 0.0047437974, No Iterations 1
GAMG:  Solving for p_rgh, Initial residual = 0.0058977822, Final residual = 0.000450422, No Iterations 5
limitVelocity velocityLimiter Limited 425 (0.02%) of cells, 117 (0.04%) of faces, with max limit 60
time step continuity errors : sum local = 9.029341e-11, global = -1.9966127e-12, cumulative = -2.5198537e-08
GAMG:  Solving for p_rgh, Initial residual = 0.0086490184, Final residual = 0.00054235188, No Iterations 4
GAMG:  Solving for p_rgh, Initial residual = 0.0015885673, Final residual = 6.9115248e-08, No Iterations 14
limitVelocity velocityLimiter Limited 421 (0.01%) of cells, 116 (0.04%) of faces, with max limit 60
time step continuity errors : sum local = 1.3384154e-14, global = -2.374654e-16, cumulative = -2.5198537e-08
ExecutionTime = 92.75 s  ClockTime = 94 s

Courant Number mean: 5.2410035e-05 max: 2.7220992
Interface Courant Number mean: 4.5653388e-06 max: 1.1901937
deltaT = 6.1150765e-09
Time = 7.4086597e-05

PIMPLE: iteration 1

Droplet cloud: 
    Number of droplets : 0

isoAdvection: After conservative bounding: min(alpha) = -0.025758837, max(alpha) = 1 + 0.0033199523
Phase-1 volume fraction = 0.00041041177  Min(alpha.liquid) = 0  Max(alpha.liquid) = 1
DILUPBiCGStab:  Solving for K, Initial residual = 0.072363491, Final residual = 0.00031385439, No Iterations 2
GAMG:  Solving for p_rgh, Initial residual = 0.07050784, Final residual = 0.0053481535, No Iterations 1
GAMG:  Solving for p_rgh, Initial residual = 0.0066777312, Final residual = 0.00054498864, No Iterations 5
limitVelocity velocityLimiter Limited 434 (0.02%) of cells, 115 (0.04%) of faces, with max limit 60
time step continuity errors : sum local = 1.3953557e-10, global = -4.5161074e-12, cumulative = -2.5203053e-08
GAMG:  Solving for p_rgh, Initial residual = 0.011009138, Final residual = 0.0009941847, No Iterations 3
GAMG:  Solving for p_rgh, Initial residual = 0.0017809861, Final residual = 5.444701e-08, No Iterations 14
limitVelocity velocityLimiter Limited 435 (0.02%) of cells, 115 (0.04%) of faces, with max limit 60
time step continuity errors : sum local = 1.2927711e-14, global = -1.9316926e-16, cumulative = -2.5203054e-08
ExecutionTime = 100.52 s  ClockTime = 102 s

Courant Number mean: 6.2640709e-05 max: 3.3892952
Interface Courant Number mean: 5.4852905e-06 max: 1.7034699
deltaT = 7.3371932e-09
Time = 7.4093934e-05

PIMPLE: iteration 1

Droplet cloud: 
    Number of droplets : 0

isoAdvection: After conservative bounding: min(alpha) = -0.032716387, max(alpha) = 1 + 0.000341765
Phase-1 volume fraction = 0.00041045623  Min(alpha.liquid) = 0  Max(alpha.liquid) = 1
DILUPBiCGStab:  Solving for K, Initial residual = 0.09050435, Final residual = 0.00025572794, No Iterations 2
GAMG:  Solving for p_rgh, Initial residual = 0.067470586, Final residual = 0.0048501082, No Iterations 1
GAMG:  Solving for p_rgh, Initial residual = 0.0061086352, Final residual = 0.00050647274, No Iterations 5
limitVelocity velocityLimiter Limited 448 (0.02%) of cells, 119 (0.04%) of faces, with max limit 60
time step continuity errors : sum local = 1.613581e-10, global = -4.8210506e-12, cumulative = -2.5207875e-08
GAMG:  Solving for p_rgh, Initial residual = 0.011862889, Final residual = 0.00067691871, No Iterations 4
GAMG:  Solving for p_rgh, Initial residual = 0.00190321, Final residual = 7.5365062e-08, No Iterations 14
limitVelocity velocityLimiter Limited 448 (0.02%) of cells, 120 (0.04%) of faces, with max limit 60
time step continuity errors : sum local = 2.2753073e-14, global = -3.9822359e-16, cumulative = -2.5207875e-08
ExecutionTime = 108.44 s  ClockTime = 110 s

Courant Number mean: 7.4891454e-05 max: 4.1342871
Interface Courant Number mean: 6.5908951e-06 max: 2.5380181
deltaT = 8.8026907e-09
Time = 7.4102737e-05

PIMPLE: iteration 1

Droplet cloud: 
    Number of droplets : 0

isoAdvection: After conservative bounding: min(alpha) = -0.041587011, max(alpha) = 1 + 0.0056895197
Phase-1 volume fraction = 0.00041050828  Min(alpha.liquid) = 0  Max(alpha.liquid) = 1
DILUPBiCGStab:  Solving for K, Initial residual = 0.11266125, Final residual = 0.00023424401, No Iterations 2
GAMG:  Solving for p_rgh, Initial residual = 0.064188338, Final residual = 0.0041338731, No Iterations 1
GAMG:  Solving for p_rgh, Initial residual = 0.0052430968, Final residual = 0.00039326843, No Iterations 5
limitVelocity velocityLimiter Limited 468 (0.02%) of cells, 126 (0.04%) of faces, with max limit 60
time step continuity errors : sum local = 1.6093775e-10, global = -3.954404e-12, cumulative = -2.5211829e-08
GAMG:  Solving for p_rgh, Initial residual = 0.01289991, Final residual = 0.001018593, No Iterations 4
GAMG:  Solving for p_rgh, Initial residual = 0.0027938213, Final residual = 8.0199084e-08, No Iterations 15
limitVelocity velocityLimiter Limited 468 (0.02%) of cells, 127 (0.04%) of faces, with max limit 60
time step continuity errors : sum local = 3.2331265e-14, global = 8.3004713e-16, cumulative = -2.5211829e-08
ExecutionTime = 116.57 s  ClockTime = 118 s

Courant Number mean: 8.9509661e-05 max: 4.8952074
Interface Courant Number mean: 7.9352232e-06 max: 4.2250725
deltaT = 1.0564161e-08
Time = 7.4113301e-05

PIMPLE: iteration 1

Droplet cloud: 
    Number of droplets : 0

isoAdvection: After conservative bounding: min(alpha) = -0.052295369, max(alpha) = 1 + 0.00049438339
Phase-1 volume fraction = 0.00041056843  Min(alpha.liquid) = 0  Max(alpha.liquid) = 1
DILUPBiCGStab:  Solving for K, Initial residual = 0.13965577, Final residual = 0.00030812233, No Iterations 2
GAMG:  Solving for p_rgh, Initial residual = 0.065676724, Final residual = 0.0053991125, No Iterations 1
GAMG:  Solving for p_rgh, Initial residual = 0.0065905992, Final residual = 0.00047657139, No Iterations 6
limitVelocity velocityLimiter Limited 508 (0.02%) of cells, 136 (0.04%) of faces, with max limit 60
time step continuity errors : sum local = 2.6526344e-10, global = 3.9170714e-13, cumulative = -2.5211437e-08
GAMG:  Solving for p_rgh, Initial residual = 0.01489294, Final residual = 0.00078729908, No Iterations 5
GAMG:  Solving for p_rgh, Initial residual = 0.0037625903, Final residual = 8.1627935e-08, No Iterations 15
limitVelocity velocityLimiter Limited 519 (0.02%) of cells, 141 (0.04%) of faces, with max limit 60
time step continuity errors : sum local = 4.8863457e-14, global = -7.6612295e-16, cumulative = -2.5211438e-08
ExecutionTime = 125.03 s  ClockTime = 127 s

Courant Number mean: 0.00010683551 max: 9.4683713
Interface Courant Number mean: 9.5306088e-06 max: 9.4683713
deltaT = 1.1154998e-08
Time = 7.4124456e-05

PIMPLE: iteration 1

Droplet cloud: 
    Number of droplets : 0

isoAdvection: After conservative bounding: min(alpha) = -0.056177099, max(alpha) = 1 + 0.0075803368
Phase-1 volume fraction = 0.00041062928  Min(alpha.liquid) = 0  Max(alpha.liquid) = 1
DILUPBiCGStab:  Solving for K, Initial residual = 0.15832024, Final residual = 0.00040386113, No Iterations 2
GAMG:  Solving for p_rgh, Initial residual = 0.0681848, Final residual = 0.0054090581, No Iterations 4
GAMG:  Solving for p_rgh, Initial residual = 0.015503026, Final residual = 0.0013248591, No Iterations 3
limitVelocity velocityLimiter Limited 546 (0.02%) of cells, 143 (0.05%) of faces, with max limit 60
time step continuity errors : sum local = 7.9115933e-10, global = -8.2314997e-13, cumulative = -2.5212261e-08
GAMG:  Solving for p_rgh, Initial residual = 0.019981151, Final residual = 0.0017979706, No Iterations 5
GAMG:  Solving for p_rgh, Initial residual = 0.0076107043, Final residual = 7.5186077e-08, No Iterations 16
limitVelocity velocityLimiter Limited 566 (0.02%) of cells, 152 (0.05%) of faces, with max limit 60
time step continuity errors : sum local = 5.0499058e-14, global = 6.1652913e-16, cumulative = -2.521226e-08
ExecutionTime = 133.67 s  ClockTime = 136 s

Courant Number mean: 0.00011225183 max: 25.55303
Interface Courant Number mean: 1.0086421e-05 max: 25.55303
deltaT = 4.3657426e-09
Time = 7.4128822e-05

PIMPLE: iteration 1

Droplet cloud: 
    Number of droplets : 0

isoAdvection: After conservative bounding: min(alpha) = -0.022613387, max(alpha) = 1 + 0.00020549622
Phase-1 volume fraction = 0.0004106493  Min(alpha.liquid) = 0  Max(alpha.liquid) = 1
DILUPBiCGStab:  Solving for K, Initial residual = 0.076114627, Final residual = 4.741893e-05, No Iterations 2
GAMG:  Solving for p_rgh, Initial residual = 0.20853331, Final residual = 0.010982864, No Iterations 5
GAMG:  Solving for p_rgh, Initial residual = 0.035239609, Final residual = 0.0032083696, No Iterations 2
limitVelocity velocityLimiter Limited 496 (0.02%) of cells, 129 (0.04%) of faces, with max limit 60
time step continuity errors : sum local = 6.2348516e-10, global = -1.6533544e-11, cumulative = -2.5228794e-08
GAMG:  Solving for p_rgh, Initial residual = 0.012507016, Final residual = 0.0011572064, No Iterations 5
GAMG:  Solving for p_rgh, Initial residual = 0.0036638294, Final residual = 6.386033e-08, No Iterations 17
limitVelocity velocityLimiter Limited 503 (0.02%) of cells, 130 (0.04%) of faces, with max limit 60
time step continuity errors : sum local = 1.2480465e-14, global = -2.6265937e-16, cumulative = -2.5228794e-08
ExecutionTime = 142.44 s  ClockTime = 145 s

Courant Number mean: 4.4224136e-05 max: 12.291556
Interface Courant Number mean: 3.9354628e-06 max: 12.291556
deltaT = 3.5518829e-09
Time = 7.4132374e-05

PIMPLE: iteration 1

Droplet cloud: 
    Number of droplets : 0

isoAdvection: After conservative bounding: min(alpha) = -0.015530526, max(alpha) = 1 + 0.0028716518
Phase-1 volume fraction = 0.00041066597  Min(alpha.liquid) = 0  Max(alpha.liquid) = 1
DILUPBiCGStab:  Solving for K, Initial residual = 0.058563309, Final residual = 2.4854242e-05, No Iterations 2
GAMG:  Solving for p_rgh, Initial residual = 0.072772483, Final residual = 0.0071896457, No Iterations 4
GAMG:  Solving for p_rgh, Initial residual = 0.017949416, Final residual = 0.001713119, No Iterations 3
limitVelocity velocityLimiter Limited 490 (0.02%) of cells, 123 (0.04%) of faces, with max limit 60
time step continuity errors : sum local = 2.063749e-10, global = 1.5889085e-12, cumulative = -2.5227205e-08
GAMG:  Solving for p_rgh, Initial residual = 0.010027409, Final residual = 0.00073138059, No Iterations 5
GAMG:  Solving for p_rgh, Initial residual = 0.0030059616, Final residual = 5.8591141e-08, No Iterations 16
limitVelocity velocityLimiter Limited 497 (0.02%) of cells, 122 (0.04%) of faces, with max limit 60
time step continuity errors : sum local = 6.7796871e-15, global = 1.0949759e-16, cumulative = -2.5227205e-08
ExecutionTime = 151.12 s  ClockTime = 153 s

Courant Number mean: 3.6106944e-05 max: 10.106023
Interface Courant Number mean: 3.1980359e-06 max: 10.106023
deltaT = 3.5149168e-09
Time = 7.4135889e-05

PIMPLE: iteration 1

Droplet cloud: 
    Number of droplets : 0

isoAdvection: After conservative bounding: min(alpha) = -0.01430127, max(alpha) = 1 + 0.00016555916
Phase-1 volume fraction = 0.00041068297  Min(alpha.liquid) = 0  Max(alpha.liquid) = 1
DILUPBiCGStab:  Solving for K, Initial residual = 0.055685219, Final residual = 2.1697956e-05, No Iterations 2
GAMG:  Solving for p_rgh, Initial residual = 0.042548893, Final residual = 0.0040447468, No Iterations 2
GAMG:  Solving for p_rgh, Initial residual = 0.0066410755, Final residual = 0.00037763789, No Iterations 5
limitVelocity velocityLimiter Limited 498 (0.02%) of cells, 124 (0.04%) of faces, with max limit 60
time step continuity errors : sum local = 4.1310977e-11, global = 1.156213e-12, cumulative = -2.5226049e-08
GAMG:  Solving for p_rgh, Initial residual = 0.0079293495, Final residual = 0.00069338453, No Iterations 5
GAMG:  Solving for p_rgh, Initial residual = 0.0027882816, Final residual = 9.1663479e-08, No Iterations 14
limitVelocity velocityLimiter Limited 498 (0.02%) of cells, 123 (0.04%) of faces, with max limit 60
time step continuity errors : sum local = 9.9646681e-15, global = -2.2853669e-16, cumulative = -2.5226049e-08
ExecutionTime = 159.43 s  ClockTime = 162 s

Courant Number mean: 3.5848159e-05 max: 10.088004
Interface Courant Number mean: 3.1643547e-06 max: 10.088004
deltaT = 3.4841812e-09
Time = 7.4139373e-05

PIMPLE: iteration 1

Droplet cloud: 
    Number of droplets : 0

isoAdvection: After conservative bounding: min(alpha) = -0.013893726, max(alpha) = 1 + 0.00016422596
Phase-1 volume fraction = 0.00041069985  Min(alpha.liquid) = 0  Max(alpha.liquid) = 1
DILUPBiCGStab:  Solving for K, Initial residual = 0.052963456, Final residual = 1.8730759e-05, No Iterations 2
GAMG:  Solving for p_rgh, Initial residual = 0.034017347, Final residual = 0.0032283612, No Iterations 5
GAMG:  Solving for p_rgh, Initial residual = 0.017909172, Final residual = 0.0017196463, No Iterations 2
limitVelocity velocityLimiter Limited 498 (0.02%) of cells, 127 (0.04%) of faces, with max limit 60
time step continuity errors : sum local = 1.4051424e-10, global = 2.6529084e-12, cumulative = -2.5223396e-08
GAMG:  Solving for p_rgh, Initial residual = 0.0069717529, Final residual = 0.0004668151, No Iterations 4
GAMG:  Solving for p_rgh, Initial residual = 0.0012331745, Final residual = 6.3813401e-08, No Iterations 16
limitVelocity velocityLimiter Limited 495 (0.02%) of cells, 124 (0.04%) of faces, with max limit 60
time step continuity errors : sum local = 5.0934364e-15, global = -8.5760917e-17, cumulative = -2.5223396e-08
ExecutionTime = 167.94 s  ClockTime = 170 s

Courant Number mean: 3.5570441e-05 max: 10.010518
Interface Courant Number mean: 3.141305e-06 max: 10.010518
deltaT = 3.4805284e-09
Time = 7.4142853e-05

PIMPLE: iteration 1

Droplet cloud: 
    Number of droplets : 0

isoAdvection: After conservative bounding: min(alpha) = -0.013829211, max(alpha) = 1 + 0.00016419277
Phase-1 volume fraction = 0.00041071675  Min(alpha.liquid) = 0  Max(alpha.liquid) = 1
DILUPBiCGStab:  Solving for K, Initial residual = 0.0523832, Final residual = 1.7734267e-05, No Iterations 2
GAMG:  Solving for p_rgh, Initial residual = 0.032733222, Final residual = 0.0024578005, No Iterations 4
GAMG:  Solving for p_rgh, Initial residual = 0.0074436007, Final residual = 0.00052041372, No Iterations 3
limitVelocity velocityLimiter Limited 499 (0.02%) of cells, 124 (0.04%) of faces, with max limit 60
time step continuity errors : sum local = 3.6955264e-11, global = 1.1181149e-12, cumulative = -2.5222278e-08
GAMG:  Solving for p_rgh, Initial residual = 0.005330882, Final residual = 0.00031301497, No Iterations 5
GAMG:  Solving for p_rgh, Initial residual = 0.0012061593, Final residual = 7.3023115e-08, No Iterations 14
limitVelocity velocityLimiter Limited 494 (0.02%) of cells, 121 (0.04%) of faces, with max limit 60
time step continuity errors : sum local = 5.1644051e-15, global = 7.0727862e-18, cumulative = -2.5222278e-08
ExecutionTime = 176.29 s  ClockTime = 179 s

Courant Number mean: 3.554491e-05 max: 10.008828
Interface Courant Number mean: 3.1434435e-06 max: 10.008828
deltaT = 3.4774897e-09
Time = 7.4146331e-05

PIMPLE: iteration 1

Droplet cloud: 
    Number of droplets : 0

isoAdvection: After conservative bounding: min(alpha) = -0.013920516, max(alpha) = 1 + 0.00016419977
Phase-1 volume fraction = 0.00041073345  Min(alpha.liquid) = 0  Max(alpha.liquid) = 1
DILUPBiCGStab:  Solving for K, Initial residual = 0.052348528, Final residual = 1.8453866e-05, No Iterations 2
GAMG:  Solving for p_rgh, Initial residual = 0.031690407, Final residual = 0.0023074294, No Iterations 4
GAMG:  Solving for p_rgh, Initial residual = 0.0060506737, Final residual = 0.00042447392, No Iterations 3
limitVelocity velocityLimiter Limited 512 (0.02%) of cells, 127 (0.04%) of faces, with max limit 60
time step continuity errors : sum local = 3.0819796e-11, global = 7.2559916e-13, cumulative = -2.5221553e-08
GAMG:  Solving for p_rgh, Initial residual = 0.0044789544, Final residual = 0.00043491682, No Iterations 3
GAMG:  Solving for p_rgh, Initial residual = 0.0008695071, Final residual = 8.4593285e-08, No Iterations 13
limitVelocity velocityLimiter Limited 510 (0.02%) of cells, 126 (0.04%) of faces, with max limit 60
time step continuity errors : sum local = 6.1111183e-15, global = -3.8795565e-17, cumulative = -2.5221553e-08
ExecutionTime = 184.07 s  ClockTime = 187 s

Courant Number mean: 3.5511637e-05 max: 10.002995
Interface Courant Number mean: 3.1372189e-06 max: 10.002995
deltaT = 3.4762755e-09
Time = 7.4149807e-05

PIMPLE: iteration 1

Droplet cloud: 
    Number of droplets : 0

isoAdvection: After conservative bounding: min(alpha) = -0.013962379, max(alpha) = 1 + 0.00016429945
Phase-1 volume fraction = 0.00041075011  Min(alpha.liquid) = 0  Max(alpha.liquid) = 1
DILUPBiCGStab:  Solving for K, Initial residual = 0.052644303, Final residual = 2.4541021e-05, No Iterations 2
GAMG:  Solving for p_rgh, Initial residual = 0.029159016, Final residual = 0.0020337502, No Iterations 1
GAMG:  Solving for p_rgh, Initial residual = 0.0026237617, Final residual = 0.00013751358, No Iterations 6
limitVelocity velocityLimiter Limited 508 (0.02%) of cells, 128 (0.04%) of faces, with max limit 60
time step continuity errors : sum local = 9.7868635e-12, global = -2.0667171e-13, cumulative = -2.5221759e-08
GAMG:  Solving for p_rgh, Initial residual = 0.0050870878, Final residual = 0.00049513032, No Iterations 4
GAMG:  Solving for p_rgh, Initial residual = 0.001335177, Final residual = 8.0697901e-08, No Iterations 14
limitVelocity velocityLimiter Limited 504 (0.02%) of cells, 129 (0.04%) of faces, with max limit 60
time step continuity errors : sum local = 5.5949321e-15, global = -1.9488042e-17, cumulative = -2.5221759e-08
ExecutionTime = 192.21 s  ClockTime = 195 s

Courant Number mean: 3.5505966e-05 max: 9.9996522
Interface Courant Number mean: 3.1349541e-06 max: 9.9996522
deltaT = 3.4762755e-09
Time = 7.4153284e-05

PIMPLE: iteration 1

Droplet cloud: 
    Number of droplets : 0

isoAdvection: After conservative bounding: min(alpha) = -0.014076929, max(alpha) = 1 + 0.00016445655
Phase-1 volume fraction = 0.00041076665  Min(alpha.liquid) = 0  Max(alpha.liquid) = 1
DILUPBiCGStab:  Solving for K, Initial residual = 0.052792151, Final residual = 2.7712155e-05, No Iterations 2
GAMG:  Solving for p_rgh, Initial residual = 0.027662096, Final residual = 0.0027304934, No Iterations 1
GAMG:  Solving for p_rgh, Initial residual = 0.0033478232, Final residual = 0.0001823105, No Iterations 6
limitVelocity velocityLimiter Limited 506 (0.02%) of cells, 126 (0.04%) of faces, with max limit 60
time step continuity errors : sum local = 1.2474874e-11, global = -1.807021e-13, cumulative = -2.522194e-08
GAMG:  Solving for p_rgh, Initial residual = 0.0052996148, Final residual = 0.00027021109, No Iterations 5
GAMG:  Solving for p_rgh, Initial residual = 0.0014530338, Final residual = 9.956479e-08, No Iterations 13
limitVelocity velocityLimiter Limited 503 (0.02%) of cells, 126 (0.04%) of faces, with max limit 60
time step continuity errors : sum local = 6.8467575e-15, global = 8.099313e-17, cumulative = -2.522194e-08
ExecutionTime = 200.39 s  ClockTime = 203 s

Courant Number mean: 3.5524285e-05 max: 9.9960222
Interface Courant Number mean: 3.1320324e-06 max: 9.9960222
deltaT = 3.4774901e-09
Time = 7.4156761e-05

PIMPLE: iteration 1

Droplet cloud: 
    Number of droplets : 0

isoAdvection: After conservative bounding: min(alpha) = -0.014239626, max(alpha) = 1 + 0.00016466998
Phase-1 volume fraction = 0.00041078307  Min(alpha.liquid) = 0  Max(alpha.liquid) = 1
DILUPBiCGStab:  Solving for K, Initial residual = 0.052658352, Final residual = 3.3818541e-05, No Iterations 2
GAMG:  Solving for p_rgh, Initial residual = 0.026352262, Final residual = 0.0015512034, No Iterations 4
GAMG:  Solving for p_rgh, Initial residual = 0.0046138094, Final residual = 0.00029876332, No Iterations 3
limitVelocity velocityLimiter Limited 507 (0.02%) of cells, 128 (0.04%) of faces, with max limit 60
time step continuity errors : sum local = 2.0436549e-11, global = 7.864105e-13, cumulative = -2.5221153e-08
GAMG:  Solving for p_rgh, Initial residual = 0.0044512343, Final residual = 0.00033989138, No Iterations 5
GAMG:  Solving for p_rgh, Initial residual = 0.0013888485, Final residual = 6.666804e-08, No Iterations 14
limitVelocity velocityLimiter Limited 502 (0.02%) of cells, 126 (0.04%) of faces, with max limit 60
time step continuity errors : sum local = 4.535584e-15, global = -8.1552961e-18, cumulative = -2.5221153e-08
ExecutionTime = 208.7 s  ClockTime = 212 s

Courant Number mean: 3.5542393e-05 max: 9.9937844
Interface Courant Number mean: 3.1362432e-06 max: 9.9937844
deltaT = 3.4799224e-09
Time = 7.4160241e-05

PIMPLE: iteration 1

Droplet cloud: 
    Number of droplets : 0

isoAdvection: After conservative bounding: min(alpha) = -0.014412388, max(alpha) = 1 + 0.00016494156
Phase-1 volume fraction = 0.00041079939  Min(alpha.liquid) = 0  Max(alpha.liquid) = 1
DILUPBiCGStab:  Solving for K, Initial residual = 0.052805162, Final residual = 4.0736642e-05, No Iterations 2
GAMG:  Solving for p_rgh, Initial residual = 0.028333644, Final residual = 0.002200808, No Iterations 4
GAMG:  Solving for p_rgh, Initial residual = 0.005474488, Final residual = 0.00049053404, No Iterations 3
limitVelocity velocityLimiter Limited 509 (0.02%) of cells, 128 (0.04%) of faces, with max limit 60
time step continuity errors : sum local = 3.2508218e-11, global = -4.0566163e-13, cumulative = -2.5221559e-08
GAMG:  Solving for p_rgh, Initial residual = 0.0045684984, Final residual = 0.00029977935, No Iterations 5
GAMG:  Solving for p_rgh, Initial residual = 0.0015736086, Final residual = 7.3021571e-08, No Iterations 14
limitVelocity velocityLimiter Limited 505 (0.02%) of cells, 127 (0.04%) of faces, with max limit 60
time step continuity errors : sum local = 4.9569283e-15, global = -1.0949038e-16, cumulative = -2.5221559e-08
ExecutionTime = 217.03 s  ClockTime = 220 s

Courant Number mean: 3.5587839e-05 max: 9.9885457
Interface Courant Number mean: 3.1379141e-06 max: 9.9885457
deltaT = 3.4841877e-09
Time = 7.4163725e-05

PIMPLE: iteration 1

Droplet cloud: 
    Number of droplets : 0

isoAdvection: After conservative bounding: min(alpha) = -0.014540318, max(alpha) = 1 + 0.00016529762
Phase-1 volume fraction = 0.0004108156  Min(alpha.liquid) = 0  Max(alpha.liquid) = 1
DILUPBiCGStab:  Solving for K, Initial residual = 0.0526329, Final residual = 5.0371252e-05, No Iterations 2
GAMG:  Solving for p_rgh, Initial residual = 0.026718975, Final residual = 0.0024689593, No Iterations 4
GAMG:  Solving for p_rgh, Initial residual = 0.0066062443, Final residual = 0.00046989827, No Iterations 3
limitVelocity velocityLimiter Limited 508 (0.02%) of cells, 128 (0.04%) of faces, with max limit 60
time step continuity errors : sum local = 3.2066658e-11, global = 1.0940867e-12, cumulative = -2.5220465e-08
GAMG:  Solving for p_rgh, Initial residual = 0.0050128645, Final residual = 0.00042887976, No Iterations 5
GAMG:  Solving for p_rgh, Initial residual = 0.0015949875, Final residual = 9.6049863e-08, No Iterations 14
limitVelocity velocityLimiter Limited 505 (0.02%) of cells, 127 (0.04%) of faces, with max limit 60
time step continuity errors : sum local = 6.5501703e-15, global = 7.6129176e-18, cumulative = -2.5220465e-08
ExecutionTime = 225.35 s  ClockTime = 229 s

Courant Number mean: 3.5631698e-05 max: 9.9778639
Interface Courant Number mean: 3.1421385e-06 max: 9.9778639
deltaT = 3.4921383e-09
Time = 7.4167217e-05

PIMPLE: iteration 1

Droplet cloud: 
    Number of droplets : 0

isoAdvection: After conservative bounding: min(alpha) = -0.014673255, max(alpha) = 1 + 0.00038999772
Phase-1 volume fraction = 0.00041083172  Min(alpha.liquid) = 0  Max(alpha.liquid) = 1
DILUPBiCGStab:  Solving for K, Initial residual = 0.052975005, Final residual = 6.0220473e-05, No Iterations 2
GAMG:  Solving for p_rgh, Initial residual = 0.027912168, Final residual = 0.0014733855, No Iterations 5
GAMG:  Solving for p_rgh, Initial residual = 0.0061690119, Final residual = 0.00033912473, No Iterations 3
limitVelocity velocityLimiter Limited 510 (0.02%) of cells, 127 (0.04%) of faces, with max limit 60
time step continuity errors : sum local = 2.2209268e-11, global = -3.3246686e-13, cumulative = -2.5220798e-08
GAMG:  Solving for p_rgh, Initial residual = 0.0046081463, Final residual = 0.00037922225, No Iterations 5
GAMG:  Solving for p_rgh, Initial residual = 0.0019285219, Final residual = 8.4983777e-08, No Iterations 14
limitVelocity velocityLimiter Limited 501 (0.02%) of cells, 125 (0.04%) of faces, with max limit 60
time step continuity errors : sum local = 5.7354395e-15, global = -1.2275322e-16, cumulative = -2.5220798e-08
ExecutionTime = 233.85 s  ClockTime = 237 s

Courant Number mean: 3.5735297e-05 max: 9.9676552
Interface Courant Number mean: 3.1509517e-06 max: 9.9676552
deltaT = 3.5032088e-09
Time = 7.417072e-05

PIMPLE: iteration 1

Droplet cloud: 
    Number of droplets : 0

isoAdvection: After conservative bounding: min(alpha) = -0.014807887, max(alpha) = 1 + 0.00016650664
Phase-1 volume fraction = 0.00041084776  Min(alpha.liquid) = 0  Max(alpha.liquid) = 1
DILUPBiCGStab:  Solving for K, Initial residual = 0.052866988, Final residual = 7.1157101e-05, No Iterations 2
GAMG:  Solving for p_rgh, Initial residual = 0.034113401, Final residual = 0.0026067461, No Iterations 6
GAMG:  Solving for p_rgh, Initial residual = 0.018323873, Final residual = 0.0011438752, No Iterations 2
limitVelocity velocityLimiter Limited 536 (0.02%) of cells, 130 (0.04%) of faces, with max limit 60
time step continuity errors : sum local = 1.051882e-10, global = 2.4336012e-12, cumulative = -2.5218364e-08
GAMG:  Solving for p_rgh, Initial residual = 0.006702189, Final residual = 0.00054696931, No Iterations 5
GAMG:  Solving for p_rgh, Initial residual = 0.002271992, Final residual = 5.6751905e-08, No Iterations 15
limitVelocity velocityLimiter Limited 531 (0.02%) of cells, 130 (0.04%) of faces, with max limit 60
time step continuity errors : sum local = 5.1498137e-15, global = -3.5060279e-19, cumulative = -2.5218364e-08
ExecutionTime = 242.53 s  ClockTime = 246 s

Courant Number mean: 3.5788388e-05 max: 11.630694
Interface Courant Number mean: 3.1642668e-06 max: 11.630694
deltaT = 3.0119213e-09
Time = 7.4173732e-05

PIMPLE: iteration 1

Droplet cloud: 
    Number of droplets : 0

isoAdvection: After conservative bounding: min(alpha) = -0.012630764, max(alpha) = 1 + 0.00014329459
Phase-1 volume fraction = 0.00041086146  Min(alpha.liquid) = 0  Max(alpha.liquid) = 1
DILUPBiCGStab:  Solving for K, Initial residual = 0.047437629, Final residual = 6.4105962e-05, No Iterations 2
GAMG:  Solving for p_rgh, Initial residual = 0.073500358, Final residual = 0.004455717, No Iterations 7
GAMG:  Solving for p_rgh, Initial residual = 0.039789838, Final residual = 0.0030208119, No Iterations 1
limitVelocity velocityLimiter Limited 363 (0.01%) of cells, 84 (0.03%) of faces, with max limit 60
time step continuity errors : sum local = 4.1522165e-10, global = -2.5045188e-12, cumulative = -2.5220869e-08
GAMG:  Solving for p_rgh, Initial residual = 0.0093777503, Final residual = 0.00090798369, No Iterations 3
GAMG:  Solving for p_rgh, Initial residual = 0.0016228027, Final residual = 8.5543383e-08, No Iterations 16
limitVelocity velocityLimiter Limited 359 (0.01%) of cells, 84 (0.03%) of faces, with max limit 60
time step continuity errors : sum local = 1.2043824e-14, global = 1.8230006e-16, cumulative = -2.5220868e-08
ExecutionTime = 251 s  ClockTime = 254 s

Courant Number mean: 3.1035036e-05 max: 4.9922318
Interface Courant Number mean: 2.7114768e-06 max: 0.49068603
deltaT = 3.6140866e-09
Time = 7.4177346e-05

PIMPLE: iteration 1

Droplet cloud: 
    Number of droplets : 0

isoAdvection: After conservative bounding: min(alpha) = -0.015702603, max(alpha) = 1 + 0.072068783
Phase-1 volume fraction = 0.00041087931  Min(alpha.liquid) = 0  Max(alpha.liquid) = 1
DILUPBiCGStab:  Solving for K, Initial residual = 0.048884304, Final residual = 9.7711537e-05, No Iterations 2
GAMG:  Solving for p_rgh, Initial residual = 0.055512749, Final residual = 0.003034483, No Iterations 6
GAMG:  Solving for p_rgh, Initial residual = 0.06968633, Final residual = 0.0034792615, No Iterations 2
limitVelocity velocityLimiter Limited 364 (0.01%) of cells, 84 (0.03%) of faces, with max limit 60
time step continuity errors : sum local = 2.7918189e-10, global = 3.5091412e-12, cumulative = -2.5217359e-08
GAMG:  Solving for p_rgh, Initial residual = 0.01553503, Final residual = 0.0012684434, No Iterations 5
GAMG:  Solving for p_rgh, Initial residual = 0.0055187566, Final residual = 5.6196472e-08, No Iterations 16
limitVelocity velocityLimiter Limited 360 (0.01%) of cells, 83 (0.03%) of faces, with max limit 60
time step continuity errors : sum local = 4.5580069e-15, global = -2.2687243e-18, cumulative = -2.5217359e-08
ExecutionTime = 259.83 s  ClockTime = 263 s

Courant Number mean: 3.7304631e-05 max: 2.7466555
Interface Courant Number mean: 3.2552647e-06 max: 0.39858577
deltaT = 4.3370616e-09
Time = 7.4181684e-05

PIMPLE: iteration 1

Droplet cloud: 
    Number of droplets : 0

isoAdvection: After conservative bounding: min(alpha) = -0.019722127, max(alpha) = 1 + 0.038683509
Phase-1 volume fraction = 0.00041090173  Min(alpha.liquid) = 0  Max(alpha.liquid) = 1
DILUPBiCGStab:  Solving for K, Initial residual = 0.056174682, Final residual = 0.00013012601, No Iterations 2
GAMG:  Solving for p_rgh, Initial residual = 0.069833782, Final residual = 0.0068993014, No Iterations 5
GAMG:  Solving for p_rgh, Initial residual = 0.035052622, Final residual = 0.0033344648, No Iterations 2
limitVelocity velocityLimiter Limited 387 (0.01%) of cells, 91 (0.03%) of faces, with max limit 60
time step continuity errors : sum local = 3.1999886e-10, global = 2.9053676e-12, cumulative = -2.5214454e-08
GAMG:  Solving for p_rgh, Initial residual = 0.012337028, Final residual = 0.00068822272, No Iterations 5
GAMG:  Solving for p_rgh, Initial residual = 0.003793246, Final residual = 8.4131842e-08, No Iterations 14
limitVelocity velocityLimiter Limited 384 (0.01%) of cells, 91 (0.03%) of faces, with max limit 60
time step continuity errors : sum local = 7.6020534e-15, global = -3.8309256e-17, cumulative = -2.5214454e-08
ExecutionTime = 268.17 s  ClockTime = 272 s

Courant Number mean: 4.472114e-05 max: 2.3930842
Interface Courant Number mean: 3.911048e-06 max: 0.5080824
deltaT = 5.2047011e-09
Time = 7.4186888e-05

PIMPLE: iteration 1

Droplet cloud: 
    Number of droplets : 0

isoAdvection: After conservative bounding: min(alpha) = -0.023688291, max(alpha) = 1 + 0.02277016
Phase-1 volume fraction = 0.0004109287  Min(alpha.liquid) = 0  Max(alpha.liquid) = 1
DILUPBiCGStab:  Solving for K, Initial residual = 0.067853986, Final residual = 0.00017775251, No Iterations 2
GAMG:  Solving for p_rgh, Initial residual = 0.06952326, Final residual = 0.0035192818, No Iterations 5
GAMG:  Solving for p_rgh, Initial residual = 0.013179026, Final residual = 0.0010818076, No Iterations 2
limitVelocity velocityLimiter Limited 410 (0.01%) of cells, 100 (0.03%) of faces, with max limit 60
time step continuity errors : sum local = 1.7389714e-10, global = 5.481937e-12, cumulative = -2.5208972e-08
GAMG:  Solving for p_rgh, Initial residual = 0.0085314217, Final residual = 0.00056356629, No Iterations 5
GAMG:  Solving for p_rgh, Initial residual = 0.0021683533, Final residual = 6.7571606e-08, No Iterations 15
limitVelocity velocityLimiter Limited 411 (0.01%) of cells, 100 (0.03%) of faces, with max limit 60
time step continuity errors : sum local = 1.1145833e-14, global = 2.5164886e-16, cumulative = -2.5208972e-08
ExecutionTime = 276.67 s  ClockTime = 280 s

Courant Number mean: 5.3480965e-05 max: 3.0184859
Interface Courant Number mean: 4.6941318e-06 max: 0.64783535
deltaT = 6.244987e-09
Time = 7.4193133e-05

PIMPLE: iteration 1

Droplet cloud: 
    Number of droplets : 0

isoAdvection: After conservative bounding: min(alpha) = -0.028817635, max(alpha) = 1 + 0.014638124
Phase-1 volume fraction = 0.00041096059  Min(alpha.liquid) = 0  Max(alpha.liquid) = 1
DILUPBiCGStab:  Solving for K, Initial residual = 0.084970818, Final residual = 0.00024614724, No Iterations 2
GAMG:  Solving for p_rgh, Initial residual = 0.05063602, Final residual = 0.0036737126, No Iterations 4
GAMG:  Solving for p_rgh, Initial residual = 0.0087375431, Final residual = 0.0004793393, No Iterations 4
limitVelocity velocityLimiter Limited 459 (0.02%) of cells, 112 (0.04%) of faces, with max limit 60
time step continuity errors : sum local = 1.0819949e-10, global = -8.0118873e-13, cumulative = -2.5209773e-08
GAMG:  Solving for p_rgh, Initial residual = 0.0089346601, Final residual = 0.00075566112, No Iterations 2
GAMG:  Solving for p_rgh, Initial residual = 0.001191611, Final residual = 8.1901302e-08, No Iterations 14
limitVelocity velocityLimiter Limited 454 (0.02%) of cells, 112 (0.04%) of faces, with max limit 60
time step continuity errors : sum local = 1.8411929e-14, global = 1.2587824e-16, cumulative = -2.5209773e-08
ExecutionTime = 284.66 s  ClockTime = 289 s

Courant Number mean: 6.3927106e-05 max: 3.6575524
Interface Courant Number mean: 5.639529e-06 max: 0.80260586
deltaT = 7.4935133e-09
Time = 7.4200627e-05

PIMPLE: iteration 1

Droplet cloud: 
    Number of droplets : 0

isoAdvection: After conservative bounding: min(alpha) = -0.035023222, max(alpha) = 1 + 0.013789572
Phase-1 volume fraction = 0.00041099789  Min(alpha.liquid) = 0  Max(alpha.liquid) = 1
DILUPBiCGStab:  Solving for K, Initial residual = 0.10613648, Final residual = 0.00033367396, No Iterations 2
GAMG:  Solving for p_rgh, Initial residual = 0.050335406, Final residual = 0.0044348258, No Iterations 1
GAMG:  Solving for p_rgh, Initial residual = 0.0054646702, Final residual = 0.0005078735, No Iterations 5
limitVelocity velocityLimiter Limited 508 (0.02%) of cells, 123 (0.04%) of faces, with max limit 60
time step continuity errors : sum local = 1.6373602e-10, global = 4.6878021e-13, cumulative = -2.5209304e-08
GAMG:  Solving for p_rgh, Initial residual = 0.011116439, Final residual = 0.00062407716, No Iterations 5
GAMG:  Solving for p_rgh, Initial residual = 0.0028942296, Final residual = 8.0036159e-08, No Iterations 15
limitVelocity velocityLimiter Limited 506 (0.02%) of cells, 124 (0.04%) of faces, with max limit 60
time step continuity errors : sum local = 2.885577e-14, global = -5.0381853e-16, cumulative = -2.5209305e-08
ExecutionTime = 292.99 s  ClockTime = 297 s

Courant Number mean: 7.6264812e-05 max: 4.378949
Interface Courant Number mean: 6.7817321e-06 max: 0.98634245
deltaT = 8.9935735e-09
Time = 7.420962e-05

PIMPLE: iteration 1

Droplet cloud: 
    Number of droplets : 0

isoAdvection: After conservative bounding: min(alpha) = -0.042295898, max(alpha) = 1 + 0.016484045
Phase-1 volume fraction = 0.00041104161  Min(alpha.liquid) = 0  Max(alpha.liquid) = 1
DILUPBiCGStab:  Solving for K, Initial residual = 0.13540757, Final residual = 0.00039500923, No Iterations 2
GAMG:  Solving for p_rgh, Initial residual = 0.047447448, Final residual = 0.0024930159, No Iterations 5
GAMG:  Solving for p_rgh, Initial residual = 0.014495519, Final residual = 0.0012252634, No Iterations 2
limitVelocity velocityLimiter Limited 545 (0.02%) of cells, 131 (0.04%) of faces, with max limit 60
time step continuity errors : sum local = 5.0464456e-10, global = -1.5476398e-11, cumulative = -2.5224781e-08
GAMG:  Solving for p_rgh, Initial residual = 0.012389871, Final residual = 0.00075421188, No Iterations 4
GAMG:  Solving for p_rgh, Initial residual = 0.0020872951, Final residual = 6.8572855e-08, No Iterations 15
limitVelocity velocityLimiter Limited 542 (0.02%) of cells, 130 (0.04%) of faces, with max limit 60
time step continuity errors : sum local = 2.8368031e-14, global = -9.7641618e-17, cumulative = -2.5224781e-08
ExecutionTime = 301.32 s  ClockTime = 305 s

Courant Number mean: 9.1213039e-05 max: 5.0760537
Interface Courant Number mean: 8.1607088e-06 max: 1.2469141
deltaT = 1.0764e-08
Time = 7.4220384e-05

PIMPLE: iteration 1

Droplet cloud: 
    Number of droplets : 0

isoAdvection: After conservative bounding: min(alpha) = -0.081236981, max(alpha) = 1 + 0.022903304
Phase-1 volume fraction = 0.00041109203  Min(alpha.liquid) = 0  Max(alpha.liquid) = 1
DILUPBiCGStab:  Solving for K, Initial residual = 0.16597409, Final residual = 0.00050205334, No Iterations 2
GAMG:  Solving for p_rgh, Initial residual = 0.056917639, Final residual = 0.0049056322, No Iterations 3
GAMG:  Solving for p_rgh, Initial residual = 0.0087044055, Final residual = 0.00064822527, No Iterations 4
limitVelocity velocityLimiter Limited 590 (0.02%) of cells, 143 (0.05%) of faces, with max limit 60
time step continuity errors : sum local = 3.8461746e-10, global = 2.7658969e-12, cumulative = -2.5222015e-08
GAMG:  Solving for p_rgh, Initial residual = 0.014011818, Final residual = 0.0013948475, No Iterations 4
GAMG:  Solving for p_rgh, Initial residual = 0.0040469535, Final residual = 9.045384e-08, No Iterations 16
limitVelocity velocityLimiter Limited 594 (0.02%) of cells, 147 (0.05%) of faces, with max limit 60
time step continuity errors : sum local = 5.7754102e-14, global = -1.0008409e-15, cumulative = -2.5222016e-08
ExecutionTime = 309.79 s  ClockTime = 314 s

Courant Number mean: 0.00010859407 max: 6.596151
Interface Courant Number mean: 9.7801234e-06 max: 1.6720187
deltaT = 1.2398783e-08
Time = 7.4232783e-05

PIMPLE: iteration 1

Droplet cloud: 
    Number of droplets : 0

isoAdvection: After conservative bounding: min(alpha) = -0.11153777, max(alpha) = 1 + 0.03046726
Phase-1 volume fraction = 0.00041114763  Min(alpha.liquid) = 0  Max(alpha.liquid) = 1
DILUPBiCGStab:  Solving for K, Initial residual = 0.20043763, Final residual = 0.00059508584, No Iterations 2
GAMG:  Solving for p_rgh, Initial residual = 0.059380781, Final residual = 0.0037481889, No Iterations 4
GAMG:  Solving for p_rgh, Initial residual = 0.014578713, Final residual = 0.0009148042, No Iterations 3
limitVelocity velocityLimiter Limited 622 (0.02%) of cells, 160 (0.05%) of faces, with max limit 60
time step continuity errors : sum local = 6.379568e-10, global = -2.6887724e-11, cumulative = -2.5248904e-08
GAMG:  Solving for p_rgh, Initial residual = 0.016044791, Final residual = 0.0010245478, No Iterations 2
GAMG:  Solving for p_rgh, Initial residual = 0.0017740132, Final residual = 7.9681181e-08, No Iterations 17
limitVelocity velocityLimiter Limited 616 (0.02%) of cells, 156 (0.05%) of faces, with max limit 60
time step continuity errors : sum local = 5.4471184e-14, global = 9.1329687e-16, cumulative = -2.5248903e-08
ExecutionTime = 318.11 s  ClockTime = 322 s

Courant Number mean: 0.00012481046 max: 7.9758237
Interface Courant Number mean: 1.1268148e-05 max: 3.4355853
deltaT = 1.3951903e-08
Time = 7.4246735e-05

PIMPLE: iteration 1

Droplet cloud: 
    Number of droplets : 0

isoAdvection: After conservative bounding: min(alpha) = -0.15947044, max(alpha) = 1 + 0.00067370643
Phase-1 volume fraction = 0.00041120862  Min(alpha.liquid) = 0  Max(alpha.liquid) = 1
DILUPBiCGStab:  Solving for K, Initial residual = 0.22815487, Final residual = 0.00023447255, No Iterations 2
GAMG:  Solving for p_rgh, Initial residual = 0.069453512, Final residual = 0.0044474289, No Iterations 4
GAMG:  Solving for p_rgh, Initial residual = 0.016284128, Final residual = 0.0010917257, No Iterations 3
limitVelocity velocityLimiter Limited 607 (0.02%) of cells, 152 (0.05%) of faces, with max limit 60
time step continuity errors : sum local = 7.6320333e-10, global = -3.1236528e-11, cumulative = -2.528014e-08
GAMG:  Solving for p_rgh, Initial residual = 0.022208972, Final residual = 0.0021044915, No Iterations 3
GAMG:  Solving for p_rgh, Initial residual = 0.0039011284, Final residual = 7.0569451e-08, No Iterations 16
limitVelocity velocityLimiter Limited 597 (0.02%) of cells, 150 (0.05%) of faces, with max limit 60
time step continuity errors : sum local = 4.9793837e-14, global = -3.5453483e-17, cumulative = -2.528014e-08
ExecutionTime = 326.41 s  ClockTime = 331 s

Courant Number mean: 0.00014050277 max: 11.730233
Interface Courant Number mean: 1.2709221e-05 max: 6.130214
deltaT = 1.1891778e-08
Time = 7.4258627e-05

PIMPLE: iteration 1

Droplet cloud: 
    Number of droplets : 0

isoAdvection: After conservative bounding: min(alpha) = -0.1155395, max(alpha) = 1 + 0.00057571874
Phase-1 volume fraction = 0.00041125524  Min(alpha.liquid) = 0  Max(alpha.liquid) = 1
DILUPBiCGStab:  Solving for K, Initial residual = 0.20582019, Final residual = 0.00015524697, No Iterations 2
GAMG:  Solving for p_rgh, Initial residual = 0.094282836, Final residual = 0.0072902673, No Iterations 1
GAMG:  Solving for p_rgh, Initial residual = 0.0093671505, Final residual = 0.00081875867, No Iterations 5
limitVelocity velocityLimiter Limited 593 (0.02%) of cells, 146 (0.05%) of faces, with max limit 60
time step continuity errors : sum local = 4.3954938e-10, global = -5.2954623e-12, cumulative = -2.5285435e-08
GAMG:  Solving for p_rgh, Initial residual = 0.023463486, Final residual = 0.0012740205, No Iterations 5
GAMG:  Solving for p_rgh, Initial residual = 0.0060614845, Final residual = 9.7884882e-08, No Iterations 16
limitVelocity velocityLimiter Limited 562 (0.02%) of cells, 134 (0.04%) of faces, with max limit 60
time step continuity errors : sum local = 5.3857861e-14, global = -1.2558082e-15, cumulative = -2.5285436e-08
ExecutionTime = 334.91 s  ClockTime = 339 s

Courant Number mean: 0.00012013515 max: 12.616215
Interface Courant Number mean: 1.0835771e-05 max: 12.616215
deltaT = 9.4239934e-09
Time = 7.4268051e-05

PIMPLE: iteration 1

Droplet cloud: 
    Number of droplets : 0

isoAdvection: After conservative bounding: min(alpha) = -1.9625711, max(alpha) = 1 + 0.00045702148
Phase-1 volume fraction = 0.00041129279  Min(alpha.liquid) = 0  Max(alpha.liquid) = 1
DILUPBiCGStab:  Solving for K, Initial residual = 0.16865492, Final residual = 0.00015080059, No Iterations 2
GAMG:  Solving for p_rgh, Initial residual = 0.10672322, Final residual = 0.0077128941, No Iterations 5
GAMG:  Solving for p_rgh, Initial residual = 0.02211582, Final residual = 0.0017012468, No Iterations 2
limitVelocity velocityLimiter Limited 463 (0.02%) of cells, 104 (0.03%) of faces, with max limit 60
time step continuity errors : sum local = 1.0833596e-09, global = -4.1858406e-11, cumulative = -2.5327295e-08
GAMG:  Solving for p_rgh, Initial residual = 0.01240324, Final residual = 0.00092064935, No Iterations 4
GAMG:  Solving for p_rgh, Initial residual = 0.002885795, Final residual = 8.9379717e-08, No Iterations 16
limitVelocity velocityLimiter Limited 451 (0.02%) of cells, 101 (0.03%) of faces, with max limit 60
time step continuity errors : sum local = 6.0100572e-14, global = 9.5100763e-16, cumulative = -2.5327294e-08
ExecutionTime = 343.36 s  ClockTime = 348 s

Courant Number mean: 9.6306333e-05 max: 10.207899
Interface Courant Number mean: 8.5648212e-06 max: 10.207899
deltaT = 9.2305906e-09
Time = 7.4277281e-05

PIMPLE: iteration 1

Droplet cloud: 
    Number of droplets : 0

isoAdvection: After conservative bounding: min(alpha) = -0.077207613, max(alpha) = 1 + 0.0021459438
Phase-1 volume fraction = 0.00041132953  Min(alpha.liquid) = 0  Max(alpha.liquid) = 1
DILUPBiCGStab:  Solving for K, Initial residual = 0.14676359, Final residual = 7.7757177e-05, No Iterations 2
GAMG:  Solving for p_rgh, Initial residual = 0.062970255, Final residual = 0.0049334267, No Iterations 5
GAMG:  Solving for p_rgh, Initial residual = 0.046009403, Final residual = 0.0036716016, No Iterations 2
limitVelocity velocityLimiter Limited 475 (0.02%) of cells, 117 (0.04%) of faces, with max limit 60
time step continuity errors : sum local = 1.2506719e-09, global = 4.3593356e-11, cumulative = -2.52837e-08
GAMG:  Solving for p_rgh, Initial residual = 0.023269327, Final residual = 0.0017275223, No Iterations 4
GAMG:  Solving for p_rgh, Initial residual = 0.0046826332, Final residual = 7.5956359e-08, No Iterations 15
limitVelocity velocityLimiter Limited 462 (0.02%) of cells, 111 (0.04%) of faces, with max limit 60
time step continuity errors : sum local = 2.6526971e-14, global = -1.8403258e-17, cumulative = -2.52837e-08
ExecutionTime = 351.65 s  ClockTime = 356 s

Courant Number mean: 9.4605918e-05 max: 9.9522228
Interface Courant Number mean: 8.3679081e-06 max: 9.9522228
deltaT = 9.2738657e-09
Time = 7.4286555e-05

PIMPLE: iteration 1

Droplet cloud: 
    Number of droplets : 0

isoAdvection: After conservative bounding: min(alpha) = -0.073282743, max(alpha) = 1 + 0.00045079886
Phase-1 volume fraction = 0.0004113657  Min(alpha.liquid) = 0  Max(alpha.liquid) = 1
DILUPBiCGStab:  Solving for K, Initial residual = 0.14411807, Final residual = 0.00010941966, No Iterations 2
GAMG:  Solving for p_rgh, Initial residual = 0.090275928, Final residual = 0.0086852006, No Iterations 2
GAMG:  Solving for p_rgh, Initial residual = 0.013404964, Final residual = 0.00077366422, No Iterations 5
limitVelocity velocityLimiter Limited 482 (0.02%) of cells, 116 (0.04%) of faces, with max limit 60
time step continuity errors : sum local = 2.7609086e-10, global = -3.0904154e-12, cumulative = -2.5286791e-08
GAMG:  Solving for p_rgh, Initial residual = 0.018110365, Final residual = 0.00096761172, No Iterations 5
GAMG:  Solving for p_rgh, Initial residual = 0.0046911963, Final residual = 5.8950583e-08, No Iterations 16
limitVelocity velocityLimiter Limited 483 (0.02%) of cells, 116 (0.04%) of faces, with max limit 60
time step continuity errors : sum local = 2.0978912e-14, global = 7.0482334e-17, cumulative = -2.5286791e-08
ExecutionTime = 360.32 s  ClockTime = 365 s

Courant Number mean: 9.5388237e-05 max: 16.038131
Interface Courant Number mean: 8.4044647e-06 max: 16.038131
deltaT = 5.7829429e-09
Time = 7.4292338e-05

PIMPLE: iteration 1

Droplet cloud: 
    Number of droplets : 0

isoAdvection: After conservative bounding: min(alpha) = -0.046118491, max(alpha) = 1 + 0.0002815418
Phase-1 volume fraction = 0.00041138549  Min(alpha.liquid) = 0  Max(alpha.liquid) = 1
DILUPBiCGStab:  Solving for K, Initial residual = 0.093737629, Final residual = 8.3887369e-05, No Iterations 2
GAMG:  Solving for p_rgh, Initial residual = 0.14914219, Final residual = 0.01318829, No Iterations 4
GAMG:  Solving for p_rgh, Initial residual = 0.022855417, Final residual = 0.0019775429, No Iterations 3
limitVelocity velocityLimiter Limited 442 (0.02%) of cells, 95 (0.03%) of faces, with max limit 60
time step continuity errors : sum local = 4.0995245e-10, global = -3.2816042e-12, cumulative = -2.5290072e-08
GAMG:  Solving for p_rgh, Initial residual = 0.013756968, Final residual = 0.001231474, No Iterations 5
GAMG:  Solving for p_rgh, Initial residual = 0.0045560955, Final residual = 9.5478709e-08, No Iterations 16
limitVelocity velocityLimiter Limited 443 (0.02%) of cells, 96 (0.03%) of faces, with max limit 60
time step continuity errors : sum local = 2.0816796e-14, global = -4.5282167e-16, cumulative = -2.5290073e-08
ExecutionTime = 368.93 s  ClockTime = 374 s

Courant Number mean: 5.9727855e-05 max: 12.280393
Interface Courant Number mean: 5.2424489e-06 max: 12.280393
deltaT = 4.709578e-09
Time = 7.4297048e-05

PIMPLE: iteration 1

Droplet cloud: 
    Number of droplets : 0

isoAdvection: After conservative bounding: min(alpha) = -0.035361747, max(alpha) = 1 + 0.00022942059
Phase-1 volume fraction = 0.000411402  Min(alpha.liquid) = 0  Max(alpha.liquid) = 1
DILUPBiCGStab:  Solving for K, Initial residual = 0.073808824, Final residual = 8.6204148e-05, No Iterations 2
GAMG:  Solving for p_rgh, Initial residual = 0.07410459, Final residual = 0.0056363677, No Iterations 2
GAMG:  Solving for p_rgh, Initial residual = 0.0084755953, Final residual = 0.00081365715, No Iterations 5
limitVelocity velocityLimiter Limited 418 (0.01%) of cells, 90 (0.03%) of faces, with max limit 60
time step continuity errors : sum local = 1.2304566e-10, global = 7.5576051e-15, cumulative = -2.5290065e-08
GAMG:  Solving for p_rgh, Initial residual = 0.010463324, Final residual = 0.00066018907, No Iterations 4
GAMG:  Solving for p_rgh, Initial residual = 0.0017945204, Final residual = 6.9157667e-08, No Iterations 14
limitVelocity velocityLimiter Limited 420 (0.01%) of cells, 91 (0.03%) of faces, with max limit 60
time step continuity errors : sum local = 1.0623179e-14, global = -2.585901e-16, cumulative = -2.5290066e-08
ExecutionTime = 377.04 s  ClockTime = 382 s

Courant Number mean: 4.8810558e-05 max: 10.195687
Interface Courant Number mean: 4.2641998e-06 max: 10.195687
deltaT = 4.6193056e-09
Time = 7.4301667e-05

PIMPLE: iteration 1

Droplet cloud: 
    Number of droplets : 0

isoAdvection: After conservative bounding: min(alpha) = -0.033610615, max(alpha) = 1 + 0.00022517505
Phase-1 volume fraction = 0.00041141908  Min(alpha.liquid) = 0  Max(alpha.liquid) = 1
DILUPBiCGStab:  Solving for K, Initial residual = 0.068505574, Final residual = 5.0421097e-05, No Iterations 2
GAMG:  Solving for p_rgh, Initial residual = 0.042986504, Final residual = 0.002595741, No Iterations 5
GAMG:  Solving for p_rgh, Initial residual = 0.01751377, Final residual = 0.0013373641, No Iterations 2
limitVelocity velocityLimiter Limited 425 (0.02%) of cells, 89 (0.03%) of faces, with max limit 60
time step continuity errors : sum local = 1.5019439e-10, global = 5.7900929e-12, cumulative = -2.5284275e-08
GAMG:  Solving for p_rgh, Initial residual = 0.0088045022, Final residual = 0.00057889772, No Iterations 5
GAMG:  Solving for p_rgh, Initial residual = 0.0025306308, Final residual = 8.131409e-08, No Iterations 14
limitVelocity velocityLimiter Limited 419 (0.01%) of cells, 89 (0.03%) of faces, with max limit 60
time step continuity errors : sum local = 9.4426637e-15, global = -2.3484362e-16, cumulative = -2.5284276e-08
ExecutionTime = 385.36 s  ClockTime = 391 s

Courant Number mean: 4.7946078e-05 max: 10.081857
Interface Courant Number mean: 4.1816205e-06 max: 10.081857
deltaT = 4.5818112e-09
Time = 7.4306249e-05

PIMPLE: iteration 1

Droplet cloud: 
    Number of droplets : 0

isoAdvection: After conservative bounding: min(alpha) = -0.03238115, max(alpha) = 1 + 0.00022354993
Phase-1 volume fraction = 0.00041143618  Min(alpha.liquid) = 0  Max(alpha.liquid) = 1
DILUPBiCGStab:  Solving for K, Initial residual = 0.066313332, Final residual = 4.1488494e-05, No Iterations 2
GAMG:  Solving for p_rgh, Initial residual = 0.049047982, Final residual = 0.0041160046, No Iterations 5
GAMG:  Solving for p_rgh, Initial residual = 0.019931322, Final residual = 0.0016711326, No Iterations 2
limitVelocity velocityLimiter Limited 443 (0.02%) of cells, 95 (0.03%) of faces, with max limit 60
time step continuity errors : sum local = 1.8808862e-10, global = 6.6169521e-12, cumulative = -2.5277659e-08
GAMG:  Solving for p_rgh, Initial residual = 0.008647001, Final residual = 0.00053757546, No Iterations 4
GAMG:  Solving for p_rgh, Initial residual = 0.001354409, Final residual = 6.9626701e-08, No Iterations 15
limitVelocity velocityLimiter Limited 437 (0.02%) of cells, 93 (0.03%) of faces, with max limit 60
time step continuity errors : sum local = 7.7970903e-15, global = 1.5893686e-16, cumulative = -2.5277659e-08
ExecutionTime = 393.69 s  ClockTime = 399 s

Courant Number mean: 4.7497924e-05 max: 10.072433
Interface Courant Number mean: 4.1454515e-06 max: 10.072433
deltaT = 4.5490991e-09
Time = 7.4310798e-05

PIMPLE: iteration 1

Droplet cloud: 
    Number of droplets : 0

isoAdvection: After conservative bounding: min(alpha) = -0.022377575, max(alpha) = 1 + 0.00022217799
Phase-1 volume fraction = 0.00041145313  Min(alpha.liquid) = 0  Max(alpha.liquid) = 1
DILUPBiCGStab:  Solving for K, Initial residual = 0.067396121, Final residual = 2.6335278e-05, No Iterations 2
GAMG:  Solving for p_rgh, Initial residual = 0.041059734, Final residual = 0.0024137973, No Iterations 5
GAMG:  Solving for p_rgh, Initial residual = 0.014516797, Final residual = 0.00114619, No Iterations 2
limitVelocity velocityLimiter Limited 444 (0.02%) of cells, 92 (0.03%) of faces, with max limit 60
time step continuity errors : sum local = 1.054811e-10, global = -3.8841987e-12, cumulative = -2.5281543e-08
GAMG:  Solving for p_rgh, Initial residual = 0.0084671819, Final residual = 0.00079812947, No Iterations 5
GAMG:  Solving for p_rgh, Initial residual = 0.0029376681, Final residual = 8.9840379e-08, No Iterations 15
limitVelocity velocityLimiter Limited 441 (0.02%) of cells, 90 (0.03%) of faces, with max limit 60
time step continuity errors : sum local = 8.3964715e-15, global = -1.8547194e-16, cumulative = -2.5281543e-08
ExecutionTime = 402.18 s  ClockTime = 408 s

Courant Number mean: 4.7184329e-05 max: 10.046333
Interface Courant Number mean: 4.11547e-06 max: 10.046333
deltaT = 4.5282364e-09
Time = 7.4315326e-05

PIMPLE: iteration 1

Droplet cloud: 
    Number of droplets : 0

isoAdvection: After conservative bounding: min(alpha) = -0.022330508, max(alpha) = 1 + 0.00022137487
Phase-1 volume fraction = 0.00041146971  Min(alpha.liquid) = 0  Max(alpha.liquid) = 1
DILUPBiCGStab:  Solving for K, Initial residual = 0.066862222, Final residual = 0.00012142068, No Iterations 2
GAMG:  Solving for p_rgh, Initial residual = 0.038476789, Final residual = 0.0024489783, No Iterations 5
GAMG:  Solving for p_rgh, Initial residual = 0.0098779161, Final residual = 0.0009198001, No Iterations 2
limitVelocity velocityLimiter Limited 452 (0.02%) of cells, 93 (0.03%) of faces, with max limit 60
time step continuity errors : sum local = 9.3018812e-11, global = 2.3027677e-12, cumulative = -2.527924e-08
GAMG:  Solving for p_rgh, Initial residual = 0.0065017428, Final residual = 0.00052981474, No Iterations 4
GAMG:  Solving for p_rgh, Initial residual = 0.0016580097, Final residual = 8.1208129e-08, No Iterations 15
limitVelocity velocityLimiter Limited 453 (0.02%) of cells, 94 (0.03%) of faces, with max limit 60
time step continuity errors : sum local = 8.4241798e-15, global = 1.9605269e-16, cumulative = -2.527924e-08
ExecutionTime = 410.47 s  ClockTime = 416 s

Courant Number mean: 4.6935707e-05 max: 10.063605
Interface Courant Number mean: 4.1055778e-06 max: 10.063605
deltaT = 4.4993416e-09
Time = 7.4319826e-05

PIMPLE: iteration 1

Droplet cloud: 
    Number of droplets : 0

isoAdvection: After conservative bounding: min(alpha) = -0.022108116, max(alpha) = 1 + 0.00022017454
Phase-1 volume fraction = 0.00041148621  Min(alpha.liquid) = 0  Max(alpha.liquid) = 1
DILUPBiCGStab:  Solving for K, Initial residual = 0.067642204, Final residual = 0.00013605237, No Iterations 2
GAMG:  Solving for p_rgh, Initial residual = 0.042089803, Final residual = 0.0037739675, No Iterations 4
GAMG:  Solving for p_rgh, Initial residual = 0.012185954, Final residual = 0.00087468288, No Iterations 3
limitVelocity velocityLimiter Limited 454 (0.02%) of cells, 92 (0.03%) of faces, with max limit 60
time step continuity errors : sum local = 7.8761187e-11, global = -2.5859256e-12, cumulative = -2.5281826e-08
GAMG:  Solving for p_rgh, Initial residual = 0.0085303638, Final residual = 0.00074061746, No Iterations 5
GAMG:  Solving for p_rgh, Initial residual = 0.002919794, Final residual = 8.2163304e-08, No Iterations 15
limitVelocity velocityLimiter Limited 450 (0.02%) of cells, 90 (0.03%) of faces, with max limit 60
time step continuity errors : sum local = 7.4721227e-15, global = -1.7125124e-16, cumulative = -2.5281826e-08
ExecutionTime = 418.94 s  ClockTime = 425 s

Courant Number mean: 4.6663225e-05 max: 10.124407
Interface Courant Number mean: 4.0834492e-06 max: 10.124407
deltaT = 4.4436316e-09
Time = 7.4324269e-05

PIMPLE: iteration 1

Droplet cloud: 
    Number of droplets : 0

isoAdvection: After conservative bounding: min(alpha) = -0.021693211, max(alpha) = 1 + 0.00021764777
Phase-1 volume fraction = 0.00041150253  Min(alpha.liquid) = 0  Max(alpha.liquid) = 1
DILUPBiCGStab:  Solving for K, Initial residual = 0.066805718, Final residual = 0.00013858594, No Iterations 2
GAMG:  Solving for p_rgh, Initial residual = 0.06252566, Final residual = 0.0052654964, No Iterations 5
GAMG:  Solving for p_rgh, Initial residual = 0.018836684, Final residual = 0.0010628266, No Iterations 3
limitVelocity velocityLimiter Limited 423 (0.02%) of cells, 80 (0.03%) of faces, with max limit 60
time step continuity errors : sum local = 1.1242808e-10, global = -1.5591367e-12, cumulative = -2.5283385e-08
GAMG:  Solving for p_rgh, Initial residual = 0.0078007099, Final residual = 0.00052732195, No Iterations 4
GAMG:  Solving for p_rgh, Initial residual = 0.0013273595, Final residual = 7.1370805e-08, No Iterations 15
limitVelocity velocityLimiter Limited 417 (0.01%) of cells, 80 (0.03%) of faces, with max limit 60
time step continuity errors : sum local = 7.6154125e-15, global = -5.5179056e-18, cumulative = -2.5283385e-08
ExecutionTime = 427.4 s  ClockTime = 433 s

Courant Number mean: 4.6171154e-05 max: 9.600101
Interface Courant Number mean: 4.0291096e-06 max: 9.600101
deltaT = 4.6291738e-09
Time = 7.4328898e-05

PIMPLE: iteration 1

Droplet cloud: 
    Number of droplets : 0

isoAdvection: After conservative bounding: min(alpha) = -0.022925357, max(alpha) = 1 + 0.00022692347
Phase-1 volume fraction = 0.0004115197  Min(alpha.liquid) = 0  Max(alpha.liquid) = 1
DILUPBiCGStab:  Solving for K, Initial residual = 0.068239378, Final residual = 0.00014207837, No Iterations 2
GAMG:  Solving for p_rgh, Initial residual = 0.06290584, Final residual = 0.004275983, No Iterations 5
GAMG:  Solving for p_rgh, Initial residual = 0.015731846, Final residual = 0.0010876084, No Iterations 3
limitVelocity velocityLimiter Limited 431 (0.02%) of cells, 87 (0.03%) of faces, with max limit 60
time step continuity errors : sum local = 1.272753e-10, global = -4.5028934e-13, cumulative = -2.5283835e-08
GAMG:  Solving for p_rgh, Initial residual = 0.00824522, Final residual = 0.00055130035, No Iterations 5
GAMG:  Solving for p_rgh, Initial residual = 0.0020291092, Final residual = 6.0158872e-08, No Iterations 15
limitVelocity velocityLimiter Limited 432 (0.02%) of cells, 87 (0.03%) of faces, with max limit 60
time step continuity errors : sum local = 7.1294495e-15, global = -1.473626e-16, cumulative = -2.5283836e-08
ExecutionTime = 436.07 s  ClockTime = 442 s

Courant Number mean: 4.8202197e-05 max: 9.8013961
Interface Courant Number mean: 4.2009749e-06 max: 9.8013961
deltaT = 4.7233753e-09
Time = 7.4333622e-05

PIMPLE: iteration 1

Droplet cloud: 
    Number of droplets : 0

isoAdvection: After conservative bounding: min(alpha) = -0.023382575, max(alpha) = 1 + 0.00043499475
Phase-1 volume fraction = 0.00041153783  Min(alpha.liquid) = 0  Max(alpha.liquid) = 1
DILUPBiCGStab:  Solving for K, Initial residual = 0.067099625, Final residual = 0.00017897396, No Iterations 2
GAMG:  Solving for p_rgh, Initial residual = 0.061846652, Final residual = 0.0036132739, No Iterations 5
GAMG:  Solving for p_rgh, Initial residual = 0.021212899, Final residual = 0.0021094086, No Iterations 2
limitVelocity velocityLimiter Limited 444 (0.02%) of cells, 85 (0.03%) of faces, with max limit 60
time step continuity errors : sum local = 2.0506292e-10, global = 4.9213794e-12, cumulative = -2.5278914e-08
GAMG:  Solving for p_rgh, Initial residual = 0.0090517211, Final residual = 0.00057744143, No Iterations 5
GAMG:  Solving for p_rgh, Initial residual = 0.0025139311, Final residual = 9.2636038e-08, No Iterations 15
limitVelocity velocityLimiter Limited 443 (0.02%) of cells, 84 (0.03%) of faces, with max limit 60
time step continuity errors : sum local = 9.2289506e-15, global = -1.2116288e-16, cumulative = -2.5278914e-08
ExecutionTime = 444.53 s  ClockTime = 450 s

Courant Number mean: 4.9175628e-05 max: 10.065709
Interface Courant Number mean: 4.2865537e-06 max: 1.2987003
deltaT = 4.6930324e-09
Time = 7.4338315e-05

PIMPLE: iteration 1

Droplet cloud: 
    Number of droplets : 0

isoAdvection: After conservative bounding: min(alpha) = -0.023010617, max(alpha) = 1 + 0.00023046818
Phase-1 volume fraction = 0.00041155568  Min(alpha.liquid) = 0  Max(alpha.liquid) = 1
DILUPBiCGStab:  Solving for K, Initial residual = 0.067593158, Final residual = 0.0001697017, No Iterations 2
GAMG:  Solving for p_rgh, Initial residual = 0.091961612, Final residual = 0.0051357516, No Iterations 7
GAMG:  Solving for p_rgh, Initial residual = 0.029426143, Final residual = 0.002470927, No Iterations 1
limitVelocity velocityLimiter Limited 540 (0.02%) of cells, 110 (0.04%) of faces, with max limit 60
time step continuity errors : sum local = 6.5169377e-10, global = 1.2804338e-11, cumulative = -2.526611e-08
GAMG:  Solving for p_rgh, Initial residual = 0.010381178, Final residual = 0.00059368998, No Iterations 5
GAMG:  Solving for p_rgh, Initial residual = 0.0023091745, Final residual = 6.4147367e-08, No Iterations 15
limitVelocity velocityLimiter Limited 538 (0.02%) of cells, 108 (0.03%) of faces, with max limit 60
time step continuity errors : sum local = 1.7737637e-14, global = 3.175464e-16, cumulative = -2.526611e-08
ExecutionTime = 453.2 s  ClockTime = 459 s

Courant Number mean: 4.8457167e-05 max: 23.17293
Interface Courant Number mean: 4.2786399e-06 max: 3.0538594
deltaT = 2.025277e-09
Time = 7.434034e-05

PIMPLE: iteration 1

Droplet cloud: 
    Number of droplets : 0

isoAdvection: After conservative bounding: min(alpha) = -0.0095685788, max(alpha) = 1 + 9.9570547e-05
Phase-1 volume fraction = 0.00041156178  Min(alpha.liquid) = 0  Max(alpha.liquid) = 1
DILUPBiCGStab:  Solving for K, Initial residual = 0.036409133, Final residual = 7.458654e-05, No Iterations 2
GAMG:  Solving for p_rgh, Initial residual = 0.15863824, Final residual = 0.010882226, No Iterations 5
GAMG:  Solving for p_rgh, Initial residual = 0.050237687, Final residual = 0.004213183, No Iterations 2
limitVelocity velocityLimiter Limited 477 (0.02%) of cells, 82 (0.03%) of faces, with max limit 60
time step continuity errors : sum local = 2.9846065e-10, global = -9.7151632e-12, cumulative = -2.5275825e-08
GAMG:  Solving for p_rgh, Initial residual = 0.010077422, Final residual = 0.00085466927, No Iterations 4
GAMG:  Solving for p_rgh, Initial residual = 0.001998266, Final residual = 9.4650154e-08, No Iterations 16
limitVelocity velocityLimiter Limited 479 (0.02%) of cells, 83 (0.03%) of faces, with max limit 60
time step continuity errors : sum local = 6.6528359e-15, global = 1.0685482e-16, cumulative = -2.5275825e-08
ExecutionTime = 461.63 s  ClockTime = 468 s

Courant Number mean: 2.1020992e-05 max: 10.63708
Interface Courant Number mean: 1.8426768e-06 max: 0.75089661
deltaT = 1.9040264e-09
Time = 7.4342244e-05

PIMPLE: iteration 1

Droplet cloud: 
    Number of droplets : 0

isoAdvection: After conservative bounding: min(alpha) = -6.825392, max(alpha) = 1 + 9.3608692e-05
Phase-1 volume fraction = 0.00041156935  Min(alpha.liquid) = 0  Max(alpha.liquid) = 1
DILUPBiCGStab:  Solving for K, Initial residual = 0.032234913, Final residual = 2.1730355e-05, No Iterations 2
GAMG:  Solving for p_rgh, Initial residual = 0.11403955, Final residual = 0.0080088419, No Iterations 7
GAMG:  Solving for p_rgh, Initial residual = 0.03508994, Final residual = 0.0031071775, No Iterations 1
limitVelocity velocityLimiter Limited 293 (0.01%) of cells, 49 (0.02%) of faces, with max limit 60
time step continuity errors : sum local = 5.295354e-10, global = -1.1069739e-11, cumulative = -2.5286895e-08
GAMG:  Solving for p_rgh, Initial residual = 0.0071485489, Final residual = 0.00035748139, No Iterations 4
GAMG:  Solving for p_rgh, Initial residual = 0.0011207165, Final residual = 7.9009277e-08, No Iterations 14
limitVelocity velocityLimiter Limited 294 (0.01%) of cells, 49 (0.02%) of faces, with max limit 60
time step continuity errors : sum local = 1.3923857e-14, global = -1.0561982e-17, cumulative = -2.5286895e-08
ExecutionTime = 469.92 s  ClockTime = 476 s

Courant Number mean: 2.0160608e-05 max: 0.36159545
Interface Courant Number mean: 1.7223695e-06 max: 0.30533531
deltaT = 2.2848758e-09
Time = 7.4344529e-05

PIMPLE: iteration 1

Droplet cloud: 
    Number of droplets : 0

isoAdvection: After conservative bounding: min(alpha) = -0.010530866, max(alpha) = 1 + 0.00011230683
Phase-1 volume fraction = 0.00041157945  Min(alpha.liquid) = 0  Max(alpha.liquid) = 1
DILUPBiCGStab:  Solving for K, Initial residual = 0.024476564, Final residual = 4.3735515e-05, No Iterations 2
GAMG:  Solving for p_rgh, Initial residual = 0.044748637, Final residual = 0.0026461101, No Iterations 7
GAMG:  Solving for p_rgh, Initial residual = 0.21195569, Final residual = 0.017124943, No Iterations 1
limitVelocity velocityLimiter Limited 300 (0.01%) of cells, 51 (0.02%) of faces, with max limit 60
time step continuity errors : sum local = 8.3436719e-10, global = 7.3712726e-12, cumulative = -2.5279523e-08
GAMG:  Solving for p_rgh, Initial residual = 0.039265686, Final residual = 0.002280597, No Iterations 5
GAMG:  Solving for p_rgh, Initial residual = 0.0078764896, Final residual = 8.9519101e-08, No Iterations 17
limitVelocity velocityLimiter Limited 297 (0.01%) of cells, 49 (0.02%) of faces, with max limit 60
time step continuity errors : sum local = 3.7830787e-15, global = 5.7223744e-17, cumulative = -2.5279523e-08
ExecutionTime = 478.92 s  ClockTime = 485 s

Courant Number mean: 2.4155344e-05 max: 1.5570499
Interface Courant Number mean: 2.067301e-06 max: 0.38471131
deltaT = 2.7418509e-09
Time = 7.4347271e-05

PIMPLE: iteration 1

Droplet cloud: 
    Number of droplets : 0

isoAdvection: After conservative bounding: min(alpha) = -0.016636794, max(alpha) = 1 + 0.000134849
Phase-1 volume fraction = 0.00041159125  Min(alpha.liquid) = 0  Max(alpha.liquid) = 1
DILUPBiCGStab:  Solving for K, Initial residual = 0.030010224, Final residual = 4.9260987e-05, No Iterations 2
GAMG:  Solving for p_rgh, Initial residual = 0.1488087, Final residual = 0.013824934, No Iterations 4
GAMG:  Solving for p_rgh, Initial residual = 0.025239726, Final residual = 0.001963066, No Iterations 3
limitVelocity velocityLimiter Limited 319 (0.01%) of cells, 52 (0.02%) of faces, with max limit 60
time step continuity errors : sum local = 1.6216751e-10, global = 5.8112382e-12, cumulative = -2.5273712e-08
GAMG:  Solving for p_rgh, Initial residual = 0.014380979, Final residual = 0.001048997, No Iterations 7
GAMG:  Solving for p_rgh, Initial residual = 0.011531309, Final residual = 7.6894293e-08, No Iterations 16
limitVelocity velocityLimiter Limited 329 (0.01%) of cells, 52 (0.02%) of faces, with max limit 60
time step continuity errors : sum local = 8.5513451e-15, global = 3.9104937e-17, cumulative = -2.5273712e-08
ExecutionTime = 487.9 s  ClockTime = 494 s

Courant Number mean: 2.877277e-05 max: 6.1609609
Interface Courant Number mean: 2.4872649e-06 max: 0.78353828
deltaT = 3.1869307e-09
Time = 7.4350458e-05

PIMPLE: iteration 1

Droplet cloud: 
    Number of droplets : 0

isoAdvection: After conservative bounding: min(alpha) = -0.014030593, max(alpha) = 1 + 0.00015687375
Phase-1 volume fraction = 0.00041160302  Min(alpha.liquid) = 0  Max(alpha.liquid) = 1
DILUPBiCGStab:  Solving for K, Initial residual = 0.041159804, Final residual = 9.2361351e-05, No Iterations 2
GAMG:  Solving for p_rgh, Initial residual = 0.060821635, Final residual = 0.0041391692, No Iterations 5
GAMG:  Solving for p_rgh, Initial residual = 0.014590769, Final residual = 0.0011527221, No Iterations 3
limitVelocity velocityLimiter Limited 477 (0.02%) of cells, 80 (0.03%) of faces, with max limit 60
time step continuity errors : sum local = 2.2118706e-10, global = -2.3694696e-13, cumulative = -2.5273949e-08
GAMG:  Solving for p_rgh, Initial residual = 0.016267007, Final residual = 0.0014260277, No Iterations 7
GAMG:  Solving for p_rgh, Initial residual = 0.014897387, Final residual = 9.9341583e-08, No Iterations 16
limitVelocity velocityLimiter Limited 556 (0.02%) of cells, 105 (0.03%) of faces, with max limit 60
time step continuity errors : sum local = 2.7586366e-14, global = 7.0765443e-17, cumulative = -2.5273949e-08
ExecutionTime = 497.03 s  ClockTime = 504 s

Courant Number mean: 3.2903595e-05 max: 21.390125
Interface Courant Number mean: 2.9124635e-06 max: 2.7693857
[...]

Courant Number mean: 5.96956e-05 max: 12.458557
Interface Courant Number mean: 3.3061371e-06 max: 1.6799059
deltaT = 1.6232995e-09
Time = 8.07766e-05

PIMPLE: iteration 1

Droplet cloud: 
    Number of droplets : 0

isoAdvection: After conservative bounding: min(alpha) = -0.011453497, max(alpha) = 1 + 0.00074602676
Phase-1 volume fraction = 0.00043720828  Min(alpha.liquid) = 0  Max(alpha.liquid) = 1
DILUPBiCGStab:  Solving for K, Initial residual = 0.028286356, Final residual = 5.0386023e-05, No Iterations 2
GAMG:  Solving for p_rgh, Initial residual = 0.058255047, Final residual = 0.0053507527, No Iterations 6
GAMG:  Solving for p_rgh, Initial residual = 0.052552334, Final residual = 0.0052231891, No Iterations 1
limitVelocity velocityLimiter Limited 278 (0.01%) of cells, 72 (0.02%) of faces, with max limit 60
time step continuity errors : sum local = 4.4552683e-10, global = -1.1221138e-11, cumulative = -1.9679844e-08
GAMG:  Solving for p_rgh, Initial residual = 0.0086978191, Final residual = 0.00077370678, No Iterations 4
GAMG:  Solving for p_rgh, Initial residual = 0.0017715888, Final residual = 9.5421413e-08, No Iterations 15
limitVelocity velocityLimiter Limited 275 (0.01%) of cells, 72 (0.02%) of faces, with max limit 60
time step continuity errors : sum local = 8.1286137e-15, global = 4.488199e-17, cumulative = -1.9679844e-08
ExecutionTime = 24044.42 s  ClockTime = 24345 s

Courant Number mean: 4.7840685e-05 max: 7.6873482
Interface Courant Number mean: 2.6479772e-06 max: 0.99549996
deltaT = 1.8345078e-09
Time = 8.0778435e-05

PIMPLE: iteration 1

Droplet cloud: 
    Number of droplets : 0

isoAdvection: After conservative bounding: min(alpha) = -0.012881426, max(alpha) = 1 + 0.00084279101
Phase-1 volume fraction = 0.00043721596  Min(alpha.liquid) = 0  Max(alpha.liquid) = 1
DILUPBiCGStab:  Solving for K, Initial residual = 0.028762797, Final residual = 6.967055e-05, No Iterations 2
GAMG:  Solving for p_rgh, Initial residual = 0.04785832, Final residual = 0.0046003717, No Iterations 6
GAMG:  Solving for p_rgh, Initial residual = 0.048881645, Final residual = 0.002561649, No Iterations 2
limitVelocity velocityLimiter Limited 364 (0.01%) of cells, 82 (0.03%) of faces, with max limit 60
time step continuity errors : sum local = 2.2681736e-10, global = 5.4331836e-12, cumulative = -1.9674411e-08
GAMG:  Solving for p_rgh, Initial residual = 0.0065686638, Final residual = 0.00039508397, No Iterations 4
GAMG:  Solving for p_rgh, Initial residual = 0.0011119206, Final residual = 5.548667e-08, No Iterations 15
limitVelocity velocityLimiter Limited 361 (0.01%) of cells, 83 (0.03%) of faces, with max limit 60
time step continuity errors : sum local = 4.941441e-15, global = -2.3080255e-17, cumulative = -1.9674411e-08
ExecutionTime = 24052.91 s  ClockTime = 24354 s

Courant Number mean: 5.4133852e-05 max: 10.81666
Interface Courant Number mean: 2.9956482e-06 max: 1.4685571
deltaT = 1.6960412e-09
Time = 8.0780131e-05

PIMPLE: iteration 1

Droplet cloud: 
    Number of droplets : 0

isoAdvection: After conservative bounding: min(alpha) = -0.011806109, max(alpha) = 1 + 0.00077920467
Phase-1 volume fraction = 0.00043722347  Min(alpha.liquid) = 0  Max(alpha.liquid) = 1
DILUPBiCGStab:  Solving for K, Initial residual = 0.029009063, Final residual = 5.1494347e-05, No Iterations 2
GAMG:  Solving for p_rgh, Initial residual = 0.049198438, Final residual = 0.0038217201, No Iterations 7
GAMG:  Solving for p_rgh, Initial residual = 0.042541665, Final residual = 0.0030766272, No Iterations 1
limitVelocity velocityLimiter Limited 276 (0.01%) of cells, 72 (0.02%) of faces, with max limit 60
time step continuity errors : sum local = 3.5050621e-10, global = -6.4858574e-12, cumulative = -1.9680897e-08
GAMG:  Solving for p_rgh, Initial residual = 0.0061331486, Final residual = 0.0003273577, No Iterations 4
GAMG:  Solving for p_rgh, Initial residual = 0.00097162856, Final residual = 7.1309057e-08, No Iterations 14
limitVelocity velocityLimiter Limited 277 (0.01%) of cells, 72 (0.02%) of faces, with max limit 60
time step continuity errors : sum local = 8.2516372e-15, global = -1.4726341e-17, cumulative = -1.9680897e-08
ExecutionTime = 24061.17 s  ClockTime = 24362 s

Courant Number mean: 4.9923252e-05 max: 5.9678831
Interface Courant Number mean: 2.7638101e-06 max: 0.74410403
deltaT = 1.9803589e-09
Time = 8.0782111e-05

PIMPLE: iteration 1

Droplet cloud: 
    Number of droplets : 0

isoAdvection: After conservative bounding: min(alpha) = -0.013672235, max(alpha) = 1 + 0.0011892018
Phase-1 volume fraction = 0.00043723234  Min(alpha.liquid) = 0  Max(alpha.liquid) = 1
DILUPBiCGStab:  Solving for K, Initial residual = 0.028116607, Final residual = 6.6255585e-05, No Iterations 2
GAMG:  Solving for p_rgh, Initial residual = 0.049813602, Final residual = 0.0029795672, No Iterations 7
GAMG:  Solving for p_rgh, Initial residual = 0.061905519, Final residual = 0.0044474623, No Iterations 1
limitVelocity velocityLimiter Limited 340 (0.01%) of cells, 78 (0.02%) of faces, with max limit 60
time step continuity errors : sum local = 5.7006087e-10, global = 9.2952135e-12, cumulative = -1.9671602e-08
GAMG:  Solving for p_rgh, Initial residual = 0.0089174816, Final residual = 0.00065067167, No Iterations 4
GAMG:  Solving for p_rgh, Initial residual = 0.0014167405, Final residual = 6.069538e-08, No Iterations 16
limitVelocity velocityLimiter Limited 333 (0.01%) of cells, 76 (0.02%) of faces, with max limit 60
time step continuity errors : sum local = 7.71702e-15, global = -6.539183e-17, cumulative = -1.9671602e-08
ExecutionTime = 24069.79 s  ClockTime = 24371 s

Courant Number mean: 5.841942e-05 max: 11.098083
Interface Courant Number mean: 3.2361028e-06 max: 1.4671755
deltaT = 1.7844524e-09
Time = 8.0783896e-05

PIMPLE: iteration 1

Droplet cloud: 
    Number of droplets : 0

isoAdvection: After conservative bounding: min(alpha) = -0.031004367, max(alpha) = 1 + 0.0010705818
Phase-1 volume fraction = 0.00043723937  Min(alpha.liquid) = 0  Max(alpha.liquid) = 1
DILUPBiCGStab:  Solving for K, Initial residual = 0.02982565, Final residual = 6.0740072e-05, No Iterations 2
GAMG:  Solving for p_rgh, Initial residual = 0.053339477, Final residual = 0.0039218489, No Iterations 5
GAMG:  Solving for p_rgh, Initial residual = 0.027189972, Final residual = 0.0023582464, No Iterations 2
limitVelocity velocityLimiter Limited 409 (0.01%) of cells, 93 (0.03%) of faces, with max limit 60
time step continuity errors : sum local = 1.7572639e-10, global = -3.3505004e-12, cumulative = -1.9674952e-08
GAMG:  Solving for p_rgh, Initial residual = 0.0055123413, Final residual = 0.0005116406, No Iterations 5
GAMG:  Solving for p_rgh, Initial residual = 0.0021945663, Final residual = 5.4521053e-08, No Iterations 15
limitVelocity velocityLimiter Limited 404 (0.01%) of cells, 93 (0.03%) of faces, with max limit 60
time step continuity errors : sum local = 3.8148426e-15, global = -4.0118321e-18, cumulative = -1.9674952e-08
ExecutionTime = 24078.25 s  ClockTime = 24379 s

Courant Number mean: 5.2677255e-05 max: 11.21522
Interface Courant Number mean: 2.9180939e-06 max: 1.4997221
deltaT = 1.5910993e-09
Time = 8.0785487e-05

PIMPLE: iteration 1

Droplet cloud: 
    Number of droplets : 0

isoAdvection: After conservative bounding: min(alpha) = -0.027736766, max(alpha) = 1 + 0.00095389601
Phase-1 volume fraction = 0.00043724599  Min(alpha.liquid) = 0  Max(alpha.liquid) = 1
DILUPBiCGStab:  Solving for K, Initial residual = 0.028038824, Final residual = 5.8012777e-05, No Iterations 2
GAMG:  Solving for p_rgh, Initial residual = 0.05726319, Final residual = 0.003934947, No Iterations 7
GAMG:  Solving for p_rgh, Initial residual = 0.035994988, Final residual = 0.0026338023, No Iterations 1
limitVelocity velocityLimiter Limited 268 (0.01%) of cells, 67 (0.02%) of faces, with max limit 60
time step continuity errors : sum local = 2.69979e-10, global = -5.4047643e-12, cumulative = -1.9680357e-08
GAMG:  Solving for p_rgh, Initial residual = 0.0053989285, Final residual = 0.00045331773, No Iterations 4
GAMG:  Solving for p_rgh, Initial residual = 0.0010592715, Final residual = 6.5737021e-08, No Iterations 14
limitVelocity velocityLimiter Limited 267 (0.01%) of cells, 67 (0.02%) of faces, with max limit 60
time step continuity errors : sum local = 6.7650961e-15, global = -1.5933877e-17, cumulative = -1.9680357e-08
ExecutionTime = 24086.59 s  ClockTime = 24388 s

Courant Number mean: 4.6861048e-05 max: 6.4653183
Interface Courant Number mean: 2.5945427e-06 max: 0.827308
deltaT = 1.8370866e-09
Time = 8.0787324e-05

PIMPLE: iteration 1

Droplet cloud: 
    Number of droplets : 0

isoAdvection: After conservative bounding: min(alpha) = -0.031952634, max(alpha) = 1 + 0.00084315767
Phase-1 volume fraction = 0.00043725383  Min(alpha.liquid) = 0  Max(alpha.liquid) = 1
DILUPBiCGStab:  Solving for K, Initial residual = 0.027240083, Final residual = 0.00011020777, No Iterations 2
GAMG:  Solving for p_rgh, Initial residual = 0.049494438, Final residual = 0.0031397014, No Iterations 7
GAMG:  Solving for p_rgh, Initial residual = 0.05828475, Final residual = 0.0041533004, No Iterations 1
limitVelocity velocityLimiter Limited 409 (0.01%) of cells, 94 (0.03%) of faces, with max limit 60
time step continuity errors : sum local = 5.2964994e-10, global = 8.7640468e-12, cumulative = -1.9671593e-08
GAMG:  Solving for p_rgh, Initial residual = 0.0083992141, Final residual = 0.00069644255, No Iterations 4
GAMG:  Solving for p_rgh, Initial residual = 0.001669206, Final residual = 5.5428104e-08, No Iterations 15
limitVelocity velocityLimiter Limited 400 (0.01%) of cells, 90 (0.03%) of faces, with max limit 60
time step continuity errors : sum local = 6.9407813e-15, global = 5.6331762e-17, cumulative = -1.9671593e-08
ExecutionTime = 24095.08 s  ClockTime = 24396 s

Courant Number mean: 5.423889e-05 max: 11.721416
Interface Courant Number mean: 3.0044545e-06 max: 1.6063666
deltaT = 1.5672075e-09
Time = 8.0788891e-05

PIMPLE: iteration 1

Droplet cloud: 
    Number of droplets : 0

isoAdvection: After conservative bounding: min(alpha) = -0.027114041, max(alpha) = 1 + 0.00071942563
Phase-1 volume fraction = 0.00043726063  Min(alpha.liquid) = 0  Max(alpha.liquid) = 1
DILUPBiCGStab:  Solving for K, Initial residual = 0.027758192, Final residual = 0.00017168065, No Iterations 2
GAMG:  Solving for p_rgh, Initial residual = 0.057837196, Final residual = 0.0040728542, No Iterations 7
GAMG:  Solving for p_rgh, Initial residual = 0.052091841, Final residual = 0.0037447577, No Iterations 1
limitVelocity velocityLimiter Limited 279 (0.01%) of cells, 67 (0.02%) of faces, with max limit 60
time step continuity errors : sum local = 4.5654015e-10, global = -7.5853867e-12, cumulative = -1.9679178e-08
GAMG:  Solving for p_rgh, Initial residual = 0.0073417964, Final residual = 0.00037643009, No Iterations 4
GAMG:  Solving for p_rgh, Initial residual = 0.0011640091, Final residual = 8.3909878e-08, No Iterations 14
limitVelocity velocityLimiter Limited 278 (0.01%) of cells, 67 (0.02%) of faces, with max limit 60
time step continuity errors : sum local = 1.0370155e-14, global = -2.5587889e-17, cumulative = -1.9679178e-08
ExecutionTime = 24103.43 s  ClockTime = 24405 s

Courant Number mean: 4.6124438e-05 max: 5.160109
Interface Courant Number mean: 2.553848e-06 max: 0.63111435
deltaT = 1.8707946e-09
Time = 8.0790762e-05

PIMPLE: iteration 1

Droplet cloud: 
    Number of droplets : 0

isoAdvection: After conservative bounding: min(alpha) = -0.032144901, max(alpha) = 1 + 0.00085821109
Phase-1 volume fraction = 0.000437269  Min(alpha.liquid) = 0  Max(alpha.liquid) = 1
DILUPBiCGStab:  Solving for K, Initial residual = 0.026160271, Final residual = 3.2238878e-05, No Iterations 4
GAMG:  Solving for p_rgh, Initial residual = 0.048574124, Final residual = 0.002798877, No Iterations 7
GAMG:  Solving for p_rgh, Initial residual = 0.073853501, Final residual = 0.0052718868, No Iterations 1
limitVelocity velocityLimiter Limited 278 (0.01%) of cells, 68 (0.02%) of faces, with max limit 60
time step continuity errors : sum local = 6.0198852e-10, global = 8.7148445e-12, cumulative = -1.9670463e-08
GAMG:  Solving for p_rgh, Initial residual = 0.010395729, Final residual = 0.00054669197, No Iterations 4
GAMG:  Solving for p_rgh, Initial residual = 0.0017473707, Final residual = 8.8649372e-08, No Iterations 15
limitVelocity velocityLimiter Limited 275 (0.01%) of cells, 66 (0.02%) of faces, with max limit 60
time step continuity errors : sum local = 1.0061137e-14, global = -4.5540591e-17, cumulative = -1.9670464e-08
ExecutionTime = 24112.03 s  ClockTime = 24413 s

Courant Number mean: 5.5170684e-05 max: 9.807195
Interface Courant Number mean: 3.058192e-06 max: 1.276167
deltaT = 1.9076456e-09
Time = 8.0792669e-05

PIMPLE: iteration 1

Droplet cloud: 
    Number of droplets : 0

isoAdvection: After conservative bounding: min(alpha) = -0.032517209, max(alpha) = 1 + 0.00087520965
Phase-1 volume fraction = 0.00043727636  Min(alpha.liquid) = 0  Max(alpha.liquid) = 1
DILUPBiCGStab:  Solving for K, Initial residual = 0.031011373, Final residual = 2.1005022e-05, No Iterations 4
GAMG:  Solving for p_rgh, Initial residual = 0.047990458, Final residual = 0.0034062444, No Iterations 2
GAMG:  Solving for p_rgh, Initial residual = 0.0066975836, Final residual = 0.00059082068, No Iterations 5
limitVelocity velocityLimiter Limited 445 (0.02%) of cells, 102 (0.03%) of faces, with max limit 60
time step continuity errors : sum local = 7.1057334e-11, global = -5.2353055e-13, cumulative = -1.9670987e-08
GAMG:  Solving for p_rgh, Initial residual = 0.0054030155, Final residual = 0.00029061484, No Iterations 6
GAMG:  Solving for p_rgh, Initial residual = 0.0024874584, Final residual = 6.1482969e-08, No Iterations 14
limitVelocity velocityLimiter Limited 440 (0.02%) of cells, 101 (0.03%) of faces, with max limit 60
time step continuity errors : sum local = 6.612473e-15, global = -3.8732665e-17, cumulative = -1.9670987e-08
ExecutionTime = 24120.56 s  ClockTime = 24422 s

Courant Number mean: 5.6355032e-05 max: 13.083832
Interface Courant Number mean: 3.125182e-06 max: 1.7429359
deltaT = 1.4580971e-09
Time = 8.0794127e-05

PIMPLE: iteration 1

Droplet cloud: 
    Number of droplets : 0

isoAdvection: After conservative bounding: min(alpha) = -0.024653033, max(alpha) = 1 + 0.00066897232
Phase-1 volume fraction = 0.0004372822  Min(alpha.liquid) = 0  Max(alpha.liquid) = 1
DILUPBiCGStab:  Solving for K, Initial residual = 0.02689697, Final residual = 0.00019766443, No Iterations 2
GAMG:  Solving for p_rgh, Initial residual = 0.076984346, Final residual = 0.0044542376, No Iterations 7
GAMG:  Solving for p_rgh, Initial residual = 0.043944346, Final residual = 0.0031909444, No Iterations 1
limitVelocity velocityLimiter Limited 266 (0.01%) of cells, 66 (0.02%) of faces, with max limit 60
time step continuity errors : sum local = 3.6346058e-10, global = -5.2398915e-12, cumulative = -1.9676227e-08
GAMG:  Solving for p_rgh, Initial residual = 0.0062953512, Final residual = 0.00046754549, No Iterations 4
GAMG:  Solving for p_rgh, Initial residual = 0.0011086317, Final residual = 7.5881672e-08, No Iterations 14
limitVelocity velocityLimiter Limited 264 (0.01%) of cells, 65 (0.02%) of faces, with max limit 60
time step continuity errors : sum local = 8.6741941e-15, global = -1.7640689e-17, cumulative = -1.9676227e-08
ExecutionTime = 24128.88 s  ClockTime = 24431 s

Courant Number mean: 4.2937206e-05 max: 5.5510688
Interface Courant Number mean: 2.381336e-06 max: 0.70117344
deltaT = 1.7208497e-09
Time = 8.0795848e-05

PIMPLE: iteration 1

Droplet cloud: 
    Number of droplets : 0

isoAdvection: After conservative bounding: min(alpha) = -0.028873132, max(alpha) = 1 + 0.00078900571
Phase-1 volume fraction = 0.00043728959  Min(alpha.liquid) = 0  Max(alpha.liquid) = 1
DILUPBiCGStab:  Solving for K, Initial residual = 0.025027723, Final residual = 3.7500534e-05, No Iterations 4
GAMG:  Solving for p_rgh, Initial residual = 0.049158986, Final residual = 0.0028530881, No Iterations 7
GAMG:  Solving for p_rgh, Initial residual = 0.071773052, Final residual = 0.0050960858, No Iterations 1
limitVelocity velocityLimiter Limited 297 (0.01%) of cells, 69 (0.02%) of faces, with max limit 60
time step continuity errors : sum local = 5.6228711e-10, global = 7.104475e-12, cumulative = -1.9669123e-08
GAMG:  Solving for p_rgh, Initial residual = 0.010109359, Final residual = 0.00072121477, No Iterations 4
GAMG:  Solving for p_rgh, Initial residual = 0.0017187805, Final residual = 5.7461133e-08, No Iterations 16
limitVelocity velocityLimiter Limited 295 (0.01%) of cells, 69 (0.02%) of faces, with max limit 60
time step continuity errors : sum local = 6.1773014e-15, global = -6.570333e-17, cumulative = -1.9669123e-08
ExecutionTime = 24137.73 s  ClockTime = 24439 s

Courant Number mean: 5.0784911e-05 max: 10.073566
Interface Courant Number mean: 2.8153138e-06 max: 1.3548203
deltaT = 1.708216e-09
Time = 8.0797557e-05

PIMPLE: iteration 1

Droplet cloud: 
    Number of droplets : 0

isoAdvection: After conservative bounding: min(alpha) = -0.028436761, max(alpha) = 1 + 0.00078332144
Phase-1 volume fraction = 0.00043729645  Min(alpha.liquid) = 0  Max(alpha.liquid) = 1
DILUPBiCGStab:  Solving for K, Initial residual = 0.029156396, Final residual = 2.2293865e-05, No Iterations 4
GAMG:  Solving for p_rgh, Initial residual = 0.041000319, Final residual = 0.0021219114, No Iterations 7
GAMG:  Solving for p_rgh, Initial residual = 0.056574993, Final residual = 0.003995523, No Iterations 1
limitVelocity velocityLimiter Limited 283 (0.01%) of cells, 68 (0.02%) of faces, with max limit 60
time step continuity errors : sum local = 2.7884998e-10, global = -3.7507096e-12, cumulative = -1.9672873e-08
GAMG:  Solving for p_rgh, Initial residual = 0.0082531217, Final residual = 0.00076262439, No Iterations 3
GAMG:  Solving for p_rgh, Initial residual = 0.0017127587, Final residual = 8.6484813e-08, No Iterations 15
limitVelocity velocityLimiter Limited 281 (0.01%) of cells, 68 (0.02%) of faces, with max limit 60
time step continuity errors : sum local = 5.9731309e-15, global = -2.1279117e-17, cumulative = -1.9672873e-08
ExecutionTime = 24146.13 s  ClockTime = 24448 s

Courant Number mean: 5.0368185e-05 max: 8.5647518
Interface Courant Number mean: 2.7931349e-06 max: 1.11177
deltaT = 1.9077659e-09
Time = 8.0799464e-05

PIMPLE: iteration 1

Droplet cloud: 
    Number of droplets : 0

isoAdvection: After conservative bounding: min(alpha) = -0.031535363, max(alpha) = 1 + 0.00087451336
Phase-1 volume fraction = 0.00043730413  Min(alpha.liquid) = 0  Max(alpha.liquid) = 1
DILUPBiCGStab:  Solving for K, Initial residual = 0.030740505, Final residual = 0.00018719468, No Iterations 2
                                                                                                                                                                                                                                                                                                                                                                                                                                                                                                                                                                                                                                                                                                                                                                                                                                                                                                                                                                                                                                                                                                                                                                                                                     